/*---------------------------------------------------------------------------*\
| =========                 |                                                 |
| \\      /  F ield         | OpenFOAM: The Open Source CFD Toolbox           |
|  \\    /   O peration     | Version:  5.0                                   |
|   \\  /    A nd           | Web:      www.OpenFOAM.org                      |
|    \\/     M anipulation  |                                                 |
\*---------------------------------------------------------------------------*/
Build  : 5.0-dbb428a3a855
Exec   : blockMesh
Date   : Oct 30 2017
Time   : 15:10:54
Host   : "vsl136"
PID    : 799
I/O    : uncollated
Case   : /home/openfoam/cases/hotRoom
nProcs : 1
sigFpe : Enabling floating point exception trapping (FOAM_SIGFPE).
fileModificationChecking : Monitoring run-time modified files using timeStampMaster (fileModificationSkew 10)
allowSystemOperations : Allowing user-supplied system call operations

// * * * * * * * * * * * * * * * * * * * * * * * * * * * * * * * * * * * * * //
Create time

Creating block mesh from
    "/home/openfoam/cases/hotRoom/system/blockMeshDict"
Creating block edges
No non-planar block faces defined
Creating topology blocks
Creating topology patches

Creating block mesh topology

Check topology

	Basic statistics
		Number of internal faces : 0
		Number of boundary faces : 6
		Number of defined boundary faces : 6
		Number of undefined boundary faces : 0
	Checking patch -> block consistency

Creating block offsets
Creating merge list .

Creating polyMesh from blockMesh
Creating patches
Creating cells
Creating points with scale 0.1
    Block 0 cell size :
        i : 0.0125 .. 0.0125
        j : 0.0125 .. 0.0125
        k : 0.0125 .. 0.0125


Writing polyMesh
----------------
Mesh Information
----------------
  boundingBox: (0 0 0) (1 0.5 1)
  nPoints: 269001
  nCells: 256000
  nFaces: 780800
  nInternalFaces: 755200
----------------
Patches
----------------
  patch 0 (start: 755200 size: 6400) name: floor
  patch 1 (start: 761600 size: 6400) name: ceiling
  patch 2 (start: 768000 size: 12800) name: fixedWalls

End

