/*---------------------------------------------------------------------------*\
| =========                 |                                                 |
| \\      /  F ield         | OpenFOAM: The Open Source CFD Toolbox           |
|  \\    /   O peration     | Version:  5.0                                   |
|   \\  /    A nd           | Web:      www.OpenFOAM.org                      |
|    \\/     M anipulation  |                                                 |
\*---------------------------------------------------------------------------*/
Build  : 5.0-dbb428a3a855
Exec   : buoyantBoussinesqPimpleFoam
Date   : Oct 30 2017
Time   : 15:10:56
Host   : "vsl136"
PID    : 802
I/O    : uncollated
Case   : /home/openfoam/cases/hotRoom
nProcs : 1
sigFpe : Enabling floating point exception trapping (FOAM_SIGFPE).
fileModificationChecking : Monitoring run-time modified files using timeStampMaster (fileModificationSkew 10)
allowSystemOperations : Allowing user-supplied system call operations

// * * * * * * * * * * * * * * * * * * * * * * * * * * * * * * * * * * * * * //
Create time

Create mesh for time = 0


PIMPLE: Operating solver in PISO mode

Reading thermophysical properties

Reading field T

Reading field p_rgh

Reading field U

Reading/calculating face flux field phi

Selecting incompressible transport model Newtonian
Creating turbulence model

Selecting turbulence model type RAS
Selecting RAS turbulence model kEpsilon
RAS
{
    RASModel        kEpsilon;
    turbulence      off;
    printCoeffs     on;
    Cmu             0.09;
    C1              1.44;
    C2              1.92;
    C3              0;
    sigmak          1;
    sigmaEps        1.3;
}

Reading field alphat


Reading g

Reading hRef
Calculating field g.h

No MRF models present

Radiation model not active: radiationProperties not found
Selecting radiationModel none
No finite volume options present

Courant Number mean: 0 max: 0

Starting time loop

Courant Number mean: 0 max: 0
deltaT = 0.0599952
Time = 0.0599952

PIMPLE: iteration 1
DILUPBiCGStab:  Solving for T, Initial residual = 1, Final residual = 4.46302e-07, No Iterations 2
DICPCG:  Solving for p_rgh, Initial residual = 1, Final residual = 0.0099464, No Iterations 14
time step continuity errors : sum local = 2.04745e-10, global = -3.26756e-26, cumulative = -3.26756e-26
DICPCG:  Solving for p_rgh, Initial residual = 0.00763122, Final residual = 9.74674e-09, No Iterations 168
time step continuity errors : sum local = 3.99957e-16, global = -6.0003e-31, cumulative = -3.26762e-26
ExecutionTime = 2.7 s  ClockTime = 3 s

Courant Number mean: 5.98632e-12 max: 7.82858e-09
deltaT = 0.0719856
Time = 0.131981

PIMPLE: iteration 1
DILUPBiCGStab:  Solving for T, Initial residual = 0.236749, Final residual = 2.57647e-07, No Iterations 2
DICPCG:  Solving for p_rgh, Initial residual = 0.344503, Final residual = 0.00330827, No Iterations 15
time step continuity errors : sum local = 2.49009e-10, global = -2.3019e-27, cumulative = -3.49781e-26
DICPCG:  Solving for p_rgh, Initial residual = 0.00377694, Final residual = 7.9841e-09, No Iterations 164
time step continuity errors : sum local = 8.02505e-16, global = -1.28657e-31, cumulative = -3.49782e-26
ExecutionTime = 4.19 s  ClockTime = 5 s

Courant Number mean: 7.9245e-12 max: 9.6547e-09
deltaT = 0.0863777
Time = 0.218359

PIMPLE: iteration 1
DILUPBiCGStab:  Solving for T, Initial residual = 0.146511, Final residual = 3.88937e-07, No Iterations 2
DICPCG:  Solving for p_rgh, Initial residual = 0.208701, Final residual = 0.00189473, No Iterations 18
time step continuity errors : sum local = 2.9152e-10, global = 1.37506e-26, cumulative = -2.12276e-26
DICPCG:  Solving for p_rgh, Initial residual = 0.00239364, Final residual = 8.65511e-09, No Iterations 164
time step continuity errors : sum local = 1.59134e-15, global = 2.78789e-30, cumulative = -2.12248e-26
ExecutionTime = 5.77 s  ClockTime = 6 s

Courant Number mean: 1.26261e-11 max: 1.55374e-08
deltaT = 0.103646
Time = 0.322005

PIMPLE: iteration 1
DILUPBiCGStab:  Solving for T, Initial residual = 0.11174, Final residual = 6.98717e-07, No Iterations 2
DICPCG:  Solving for p_rgh, Initial residual = 0.148281, Final residual = 0.00143379, No Iterations 20
time step continuity errors : sum local = 3.75503e-10, global = -7.55007e-26, cumulative = -9.67255e-26
DICPCG:  Solving for p_rgh, Initial residual = 0.00195997, Final residual = 9.96758e-09, No Iterations 163
time step continuity errors : sum local = 2.9624e-15, global = -4.87636e-30, cumulative = -9.67303e-26
ExecutionTime = 7.24 s  ClockTime = 8 s

Courant Number mean: 1.88292e-11 max: 2.15202e-08
deltaT = 0.12436
Time = 0.446365

PIMPLE: iteration 1
DILUPBiCGStab:  Solving for T, Initial residual = 0.0933837, Final residual = 4.47725e-08, No Iterations 2
DICPCG:  Solving for p_rgh, Initial residual = 0.113134, Final residual = 0.000493565, No Iterations 25
time step continuity errors : sum local = 2.05171e-10, global = -7.76377e-26, cumulative = -1.74368e-25
DICPCG:  Solving for p_rgh, Initial residual = 0.000648566, Final residual = 9.91928e-09, No Iterations 163
time step continuity errors : sum local = 4.43318e-15, global = 3.83213e-31, cumulative = -1.74368e-25
ExecutionTime = 8.75 s  ClockTime = 9 s

Courant Number mean: 1.8704e-11 max: 3.14711e-08
deltaT = 0.14921
Time = 0.595574

PIMPLE: iteration 1
DILUPBiCGStab:  Solving for T, Initial residual = 0.0823675, Final residual = 1.10086e-07, No Iterations 2
DICPCG:  Solving for p_rgh, Initial residual = 0.0892321, Final residual = 0.000412596, No Iterations 25
time step continuity errors : sum local = 2.52761e-10, global = 3.72322e-26, cumulative = -1.37136e-25
DICPCG:  Solving for p_rgh, Initial residual = 0.000538826, Final residual = 9.97916e-09, No Iterations 163
time step continuity errors : sum local = 6.40155e-15, global = 1.78948e-30, cumulative = -1.37134e-25
ExecutionTime = 10.3 s  ClockTime = 11 s

Courant Number mean: 2.41575e-11 max: 4.49714e-08
deltaT = 0.178998
Time = 0.774572

PIMPLE: iteration 1
DILUPBiCGStab:  Solving for T, Initial residual = 0.075098, Final residual = 2.66136e-07, No Iterations 2
DICPCG:  Solving for p_rgh, Initial residual = 0.0840554, Final residual = 0.000347613, No Iterations 25
time step continuity errors : sum local = 3.02383e-10, global = -1.30106e-25, cumulative = -2.6724e-25
DICPCG:  Solving for p_rgh, Initial residual = 0.00047016, Final residual = 7.87517e-09, No Iterations 164
time step continuity errors : sum local = 7.00376e-15, global = 8.52304e-30, cumulative = -2.67232e-25
ExecutionTime = 11.82 s  ClockTime = 12 s

Courant Number mean: 3.28474e-11 max: 6.43517e-08
deltaT = 0.214721
Time = 0.989293

PIMPLE: iteration 1
DILUPBiCGStab:  Solving for T, Initial residual = 0.070168, Final residual = 6.28153e-07, No Iterations 2
DICPCG:  Solving for p_rgh, Initial residual = 0.0834673, Final residual = 0.000284527, No Iterations 25
time step continuity errors : sum local = 3.42651e-10, global = -1.33128e-25, cumulative = -4.0036e-25
DICPCG:  Solving for p_rgh, Initial residual = 0.000408583, Final residual = 8.46489e-09, No Iterations 164
time step continuity errors : sum local = 1.01645e-14, global = -4.0863e-30, cumulative = -4.00364e-25
ExecutionTime = 13.38 s  ClockTime = 14 s

Courant Number mean: 4.55984e-11 max: 9.18123e-08
deltaT = 0.25762
Time = 1.24691

PIMPLE: iteration 1
DILUPBiCGStab:  Solving for T, Initial residual = 0.0665691, Final residual = 7.53572e-08, No Iterations 3
DICPCG:  Solving for p_rgh, Initial residual = 0.0815077, Final residual = 0.00062486, No Iterations 24
time step continuity errors : sum local = 9.74996e-10, global = 1.80319e-26, cumulative = -3.82332e-25
DICPCG:  Solving for p_rgh, Initial residual = 0.000883662, Final residual = 9.85497e-09, No Iterations 164
time step continuity errors : sum local = 1.56584e-14, global = -5.76976e-30, cumulative = -3.82338e-25
ExecutionTime = 14.97 s  ClockTime = 15 s

Courant Number mean: 7.86231e-11 max: 1.31786e-07
deltaT = 0.309017
Time = 1.55593

PIMPLE: iteration 1
DILUPBiCGStab:  Solving for T, Initial residual = 0.0640636, Final residual = 2.06206e-07, No Iterations 3
DICPCG:  Solving for p_rgh, Initial residual = 0.0783495, Final residual = 0.000553196, No Iterations 24
time step continuity errors : sum local = 1.13938e-09, global = 2.67774e-25, cumulative = -1.14564e-25
DICPCG:  Solving for p_rgh, Initial residual = 0.000773466, Final residual = 8.35469e-09, No Iterations 165
time step continuity errors : sum local = 1.72658e-14, global = -1.44244e-29, cumulative = -1.14578e-25
ExecutionTime = 16.49 s  ClockTime = 17 s

Courant Number mean: 1.05328e-10 max: 1.87385e-07
deltaT = 0.37059
Time = 1.92652

PIMPLE: iteration 1
DILUPBiCGStab:  Solving for T, Initial residual = 0.0621247, Final residual = 5.3136e-07, No Iterations 3
DICPCG:  Solving for p_rgh, Initial residual = 0.0805426, Final residual = 0.000515377, No Iterations 24
time step continuity errors : sum local = 1.37985e-09, global = 5.90844e-25, cumulative = 4.76266e-25
DICPCG:  Solving for p_rgh, Initial residual = 0.000740469, Final residual = 9.32754e-09, No Iterations 165
time step continuity errors : sum local = 2.47357e-14, global = -1.86141e-29, cumulative = 4.76247e-25
ExecutionTime = 18.02 s  ClockTime = 18 s

Courant Number mean: 1.43941e-10 max: 2.66805e-07
deltaT = 0.444312
Time = 2.37083

PIMPLE: iteration 1
DILUPBiCGStab:  Solving for T, Initial residual = 0.0608261, Final residual = 2.07733e-07, No Iterations 3
DICPCG:  Solving for p_rgh, Initial residual = 0.0836854, Final residual = 0.000504456, No Iterations 24
time step continuity errors : sum local = 1.75317e-09, global = 1.14898e-24, cumulative = 1.62522e-24
DICPCG:  Solving for p_rgh, Initial residual = 0.000744149, Final residual = 8.9716e-09, No Iterations 166
time step continuity errors : sum local = 3.09102e-14, global = -2.51265e-29, cumulative = 1.6252e-24
ExecutionTime = 19.59 s  ClockTime = 20 s

Courant Number mean: 1.98975e-10 max: 3.79144e-07
deltaT = 0.532794
Time = 2.90363

PIMPLE: iteration 1
DILUPBiCGStab:  Solving for T, Initial residual = 0.0598703, Final residual = 5.71079e-07, No Iterations 3
DICPCG:  Solving for p_rgh, Initial residual = 0.0816021, Final residual = 0.000515416, No Iterations 24
time step continuity errors : sum local = 2.38204e-09, global = -5.53959e-25, cumulative = 1.07124e-24
DICPCG:  Solving for p_rgh, Initial residual = 0.000758175, Final residual = 9.68921e-09, No Iterations 166
time step continuity errors : sum local = 4.51384e-14, global = -5.79489e-29, cumulative = 1.07118e-24
ExecutionTime = 21.13 s  ClockTime = 22 s

Courant Number mean: 2.8056e-10 max: 5.3842e-07
deltaT = 0.638941
Time = 3.54257

PIMPLE: iteration 1
DILUPBiCGStab:  Solving for T, Initial residual = 0.0592284, Final residual = 1.94894e-07, No Iterations 4
DICPCG:  Solving for p_rgh, Initial residual = 0.0792217, Final residual = 0.00056842, No Iterations 24
time step continuity errors : sum local = 3.5128e-09, global = 7.47409e-25, cumulative = 1.81859e-24
DICPCG:  Solving for p_rgh, Initial residual = 0.000837345, Final residual = 9.88975e-09, No Iterations 167
time step continuity errors : sum local = 6.12299e-14, global = 8.29612e-29, cumulative = 1.81867e-24
ExecutionTime = 22.64 s  ClockTime = 23 s

Courant Number mean: 4.01769e-10 max: 7.63643e-07
deltaT = 0.766138
Time = 4.3087

PIMPLE: iteration 1
DILUPBiCGStab:  Solving for T, Initial residual = 0.0588611, Final residual = 5.42483e-07, No Iterations 4
DICPCG:  Solving for p_rgh, Initial residual = 0.0800371, Final residual = 0.000663394, No Iterations 24
time step continuity errors : sum local = 5.38542e-09, global = 1.4923e-24, cumulative = 3.31097e-24
DICPCG:  Solving for p_rgh, Initial residual = 0.000964056, Final residual = 9.43605e-09, No Iterations 169
time step continuity errors : sum local = 7.64983e-14, global = 1.12895e-28, cumulative = 3.31108e-24
ExecutionTime = 24.22 s  ClockTime = 25 s

Courant Number mean: 5.8115e-10 max: 1.08225e-06
deltaT = 0.917947
Time = 5.22665

PIMPLE: iteration 1
DILUPBiCGStab:  Solving for T, Initial residual = 0.0587459, Final residual = 4.44919e-07, No Iterations 4
DICPCG:  Solving for p_rgh, Initial residual = 0.079009, Final residual = 0.000779069, No Iterations 24
time step continuity errors : sum local = 8.20502e-09, global = -7.4574e-25, cumulative = 2.56534e-24
DICPCG:  Solving for p_rgh, Initial residual = 0.00111571, Final residual = 9.32453e-09, No Iterations 170
time step continuity errors : sum local = 9.79474e-14, global = 4.57795e-29, cumulative = 2.56539e-24
ExecutionTime = 25.84 s  ClockTime = 26 s

Courant Number mean: 8.38733e-10 max: 1.5312e-06
deltaT = 1.0995
Time = 6.32615

PIMPLE: iteration 1
DILUPBiCGStab:  Solving for T, Initial residual = 0.0586972, Final residual = 2.30294e-07, No Iterations 5
DICPCG:  Solving for p_rgh, Initial residual = 0.0793443, Final residual = 0.000558022, No Iterations 25
time step continuity errors : sum local = 7.91274e-09, global = 5.01416e-25, cumulative = 3.0668e-24
DICPCG:  Solving for p_rgh, Initial residual = 0.000877533, Final residual = 9.72584e-09, No Iterations 170
time step continuity errors : sum local = 1.37201e-13, global = -8.32643e-29, cumulative = 3.06672e-24
ExecutionTime = 27.47 s  ClockTime = 28 s

Courant Number mean: 1.10609e-09 max: 2.14967e-06
deltaT = 1.31646
Time = 7.64261

PIMPLE: iteration 1
DILUPBiCGStab:  Solving for T, Initial residual = 0.0588621, Final residual = 5.94627e-07, No Iterations 5
DICPCG:  Solving for p_rgh, Initial residual = 0.0770829, Final residual = 0.000749119, No Iterations 24
time step continuity errors : sum local = 1.39633e-08, global = -3.89875e-24, cumulative = -8.32025e-25
DICPCG:  Solving for p_rgh, Initial residual = 0.00112329, Final residual = 9.26626e-09, No Iterations 172
time step continuity errors : sum local = 1.72773e-13, global = 5.4133e-28, cumulative = -8.31483e-25
ExecutionTime = 29.12 s  ClockTime = 30 s

Courant Number mean: 1.6112e-09 max: 3.03513e-06
deltaT = 1.57807
Time = 9.22068

PIMPLE: iteration 1
DILUPBiCGStab:  Solving for T, Initial residual = 0.0593282, Final residual = 6.20598e-07, No Iterations 5
DICPCG:  Solving for p_rgh, Initial residual = 0.0773341, Final residual = 0.000680533, No Iterations 24
time step continuity errors : sum local = 1.6806e-08, global = -5.57649e-24, cumulative = -6.40797e-24
DICPCG:  Solving for p_rgh, Initial residual = 0.00105504, Final residual = 9.20769e-09, No Iterations 173
time step continuity errors : sum local = 2.24141e-13, global = 6.11458e-28, cumulative = -6.40736e-24
ExecutionTime = 30.75 s  ClockTime = 31 s

Courant Number mean: 2.26266e-09 max: 4.26844e-06
deltaT = 1.88761
Time = 11.1083

PIMPLE: iteration 1
DILUPBiCGStab:  Solving for T, Initial residual = 0.0596728, Final residual = 4.26034e-07, No Iterations 6
DICPCG:  Solving for p_rgh, Initial residual = 0.076313, Final residual = 0.000692756, No Iterations 24
time step continuity errors : sum local = 2.24012e-08, global = 5.10489e-24, cumulative = -1.30247e-24
DICPCG:  Solving for p_rgh, Initial residual = 0.00108036, Final residual = 9.29413e-09, No Iterations 174
time step continuity errors : sum local = 2.96063e-13, global = -1.38925e-28, cumulative = -1.30261e-24
ExecutionTime = 32.4 s  ClockTime = 33 s

Courant Number mean: 3.20351e-09 max: 5.95524e-06
deltaT = 2.26339
Time = 13.3717

PIMPLE: iteration 1
DILUPBiCGStab:  Solving for T, Initial residual = 0.06046, Final residual = 5.6414e-07, No Iterations 6
DICPCG:  Solving for p_rgh, Initial residual = 0.076463, Final residual = 0.000721606, No Iterations 24
time step continuity errors : sum local = 3.07546e-08, global = -6.52895e-24, cumulative = -7.83156e-24
DICPCG:  Solving for p_rgh, Initial residual = 0.00110945, Final residual = 8.96521e-09, No Iterations 175
time step continuity errors : sum local = 3.77191e-13, global = -7.19556e-28, cumulative = -7.83228e-24
ExecutionTime = 34.01 s  ClockTime = 34 s

Courant Number mean: 4.55197e-09 max: 8.33873e-06
deltaT = 2.70349
Time = 16.0752

PIMPLE: iteration 1
DILUPBiCGStab:  Solving for T, Initial residual = 0.0610565, Final residual = 5.60973e-07, No Iterations 7
DICPCG:  Solving for p_rgh, Initial residual = 0.0758921, Final residual = 0.000738705, No Iterations 24
time step continuity errors : sum local = 4.12142e-08, global = 2.32975e-23, cumulative = 1.54652e-23
DICPCG:  Solving for p_rgh, Initial residual = 0.0011383, Final residual = 9.52284e-09, No Iterations 175
time step continuity errors : sum local = 5.20224e-13, global = 8.29079e-28, cumulative = 1.54661e-23
ExecutionTime = 35.71 s  ClockTime = 36 s

Courant Number mean: 6.42488e-09 max: 1.15338e-05
deltaT = 3.22617
Time = 19.3013

PIMPLE: iteration 1
DILUPBiCGStab:  Solving for T, Initial residual = 0.0618436, Final residual = 4.13984e-07, No Iterations 8
DICPCG:  Solving for p_rgh, Initial residual = 0.0751902, Final residual = 0.000707883, No Iterations 23
time step continuity errors : sum local = 5.17415e-08, global = -4.36788e-23, cumulative = -2.82128e-23
DICPCG:  Solving for p_rgh, Initial residual = 0.00115901, Final residual = 9.86298e-09, No Iterations 175
time step continuity errors : sum local = 7.04833e-13, global = 1.08799e-28, cumulative = -2.82127e-23
ExecutionTime = 37.33 s  ClockTime = 38 s

Courant Number mean: 8.99086e-09 max: 1.57713e-05
deltaT = 3.84559
Time = 23.1469

PIMPLE: iteration 1
DILUPBiCGStab:  Solving for T, Initial residual = 0.0627175, Final residual = 7.75162e-07, No Iterations 8
DICPCG:  Solving for p_rgh, Initial residual = 0.0744471, Final residual = 0.000731488, No Iterations 23
time step continuity errors : sum local = 6.97257e-08, global = -3.27984e-23, cumulative = -6.10111e-23
DICPCG:  Solving for p_rgh, Initial residual = 0.00117808, Final residual = 9.57431e-09, No Iterations 175
time step continuity errors : sum local = 8.89101e-13, global = -1.05419e-27, cumulative = -6.10121e-23
ExecutionTime = 39.01 s  ClockTime = 39 s

Courant Number mean: 1.26436e-08 max: 2.15454e-05
deltaT = 4.58513
Time = 27.7321

PIMPLE: iteration 1
DILUPBiCGStab:  Solving for T, Initial residual = 0.0638083, Final residual = 9.41227e-07, No Iterations 9
DICPCG:  Solving for p_rgh, Initial residual = 0.0741259, Final residual = 0.000668417, No Iterations 23
time step continuity errors : sum local = 8.36239e-08, global = 2.23045e-23, cumulative = -3.87076e-23
DICPCG:  Solving for p_rgh, Initial residual = 0.00109918, Final residual = 9.86069e-09, No Iterations 172
time step continuity errors : sum local = 1.19059e-12, global = 7.23405e-27, cumulative = -3.87004e-23
ExecutionTime = 40.69 s  ClockTime = 41 s

Courant Number mean: 1.76428e-08 max: 2.93557e-05
deltaT = 5.49149
Time = 33.2235

PIMPLE: iteration 1
DILUPBiCGStab:  Solving for T, Initial residual = 0.0653559, Final residual = 9.1299e-07, No Iterations 10
DICPCG:  Solving for p_rgh, Initial residual = 0.0740602, Final residual = 0.000680141, No Iterations 23
time step continuity errors : sum local = 1.11279e-07, global = -4.03259e-23, cumulative = -7.90263e-23
DICPCG:  Solving for p_rgh, Initial residual = 0.00112685, Final residual = 8.20814e-09, No Iterations 170
time step continuity errors : sum local = 1.29212e-12, global = 1.0415e-25, cumulative = -7.89221e-23
ExecutionTime = 42.37 s  ClockTime = 43 s

Courant Number mean: 2.49973e-08 max: 4.01646e-05
deltaT = 6.57432
Time = 39.7979

PIMPLE: iteration 1
DILUPBiCGStab:  Solving for T, Initial residual = 0.0670556, Final residual = 8.89259e-07, No Iterations 11
DICPCG:  Solving for p_rgh, Initial residual = 0.0738362, Final residual = 0.000697818, No Iterations 23
time step continuity errors : sum local = 1.49074e-07, global = -1.41397e-22, cumulative = -2.20319e-22
DICPCG:  Solving for p_rgh, Initial residual = 0.00116205, Final residual = 9.94431e-09, No Iterations 168
time step continuity errors : sum local = 2.04291e-12, global = -3.49875e-27, cumulative = -2.20323e-22
ExecutionTime = 44.02 s  ClockTime = 44 s

Courant Number mean: 3.45954e-08 max: 5.45506e-05
deltaT = 7.80004
Time = 47.5979

PIMPLE: iteration 1
DILUPBiCGStab:  Solving for T, Initial residual = 0.0684252, Final residual = 8.75692e-07, No Iterations 12
DICPCG:  Solving for p_rgh, Initial residual = 0.0732593, Final residual = 0.000687884, No Iterations 26
time step continuity errors : sum local = 1.90017e-07, global = -1.29399e-22, cumulative = -3.49722e-22
DICPCG:  Solving for p_rgh, Initial residual = 0.00114531, Final residual = 9.81563e-09, No Iterations 175
time step continuity errors : sum local = 2.59583e-12, global = -1.00216e-24, cumulative = -3.50724e-22
ExecutionTime = 45.76 s  ClockTime = 46 s

Courant Number mean: 4.5591e-08 max: 7.19043e-05
deltaT = 9.2327
Time = 56.8306

PIMPLE: iteration 1
DILUPBiCGStab:  Solving for T, Initial residual = 0.0699129, Final residual = 8.0565e-07, No Iterations 13
DICPCG:  Solving for p_rgh, Initial residual = 0.0728054, Final residual = 0.000708328, No Iterations 22
time step continuity errors : sum local = 2.51349e-07, global = -2.23001e-22, cumulative = -5.73725e-22
DICPCG:  Solving for p_rgh, Initial residual = 0.0012098, Final residual = 9.92869e-09, No Iterations 175
time step continuity errors : sum local = 3.37896e-12, global = 2.86302e-24, cumulative = -5.70862e-22
ExecutionTime = 47.49 s  ClockTime = 48 s

Courant Number mean: 6.2918e-08 max: 9.40949e-05
deltaT = 10.809
Time = 67.6396

PIMPLE: iteration 1
DILUPBiCGStab:  Solving for T, Initial residual = 0.0710763, Final residual = 7.0476e-07, No Iterations 14
DICPCG:  Solving for p_rgh, Initial residual = 0.0714493, Final residual = 0.000697175, No Iterations 22
time step continuity errors : sum local = 3.14556e-07, global = -2.63385e-22, cumulative = -8.34247e-22
DICPCG:  Solving for p_rgh, Initial residual = 0.00116971, Final residual = 9.72462e-09, No Iterations 175
time step continuity errors : sum local = 4.20234e-12, global = 2.2104e-24, cumulative = -8.32036e-22
ExecutionTime = 49.21 s  ClockTime = 50 s

Courant Number mean: 8.45838e-08 max: 0.000118863
deltaT = 12.7165
Time = 80.3561

PIMPLE: iteration 1
DILUPBiCGStab:  Solving for T, Initial residual = 0.0728853, Final residual = 6.19542e-07, No Iterations 15
DICPCG:  Solving for p_rgh, Initial residual = 0.0707306, Final residual = 0.000529798, No Iterations 29
time step continuity errors : sum local = 3.11261e-07, global = -8.20371e-24, cumulative = -8.4024e-22
DICPCG:  Solving for p_rgh, Initial residual = 0.000872974, Final residual = 9.21171e-09, No Iterations 175
time step continuity errors : sum local = 5.06713e-12, global = -3.41704e-23, cumulative = -8.74411e-22
ExecutionTime = 51 s  ClockTime = 51 s

Courant Number mean: 1.02788e-07 max: 0.000147665
deltaT = 14.9873
Time = 95.3434

PIMPLE: iteration 1
DILUPBiCGStab:  Solving for T, Initial residual = 0.0752277, Final residual = 6.08224e-07, No Iterations 16
DICPCG:  Solving for p_rgh, Initial residual = 0.0700158, Final residual = 0.000571243, No Iterations 29
time step continuity errors : sum local = 4.22991e-07, global = -2.87663e-22, cumulative = -1.16207e-21
DICPCG:  Solving for p_rgh, Initial residual = 0.000903593, Final residual = 9.90237e-09, No Iterations 174
time step continuity errors : sum local = 6.93673e-12, global = -1.23931e-23, cumulative = -1.17447e-21
ExecutionTime = 52.81 s  ClockTime = 53 s

Courant Number mean: 1.33878e-07 max: 0.000181886
deltaT = 17.5938
Time = 112.937

PIMPLE: iteration 1
DILUPBiCGStab:  Solving for T, Initial residual = 0.077644, Final residual = 6.13951e-07, No Iterations 17
DICPCG:  Solving for p_rgh, Initial residual = 0.0689631, Final residual = 0.000643579, No Iterations 27
time step continuity errors : sum local = 5.96152e-07, global = -4.84421e-22, cumulative = -1.65889e-21
DICPCG:  Solving for p_rgh, Initial residual = 0.00106817, Final residual = 9.61239e-09, No Iterations 172
time step continuity errors : sum local = 8.53182e-12, global = 4.36321e-23, cumulative = -1.61525e-21
ExecutionTime = 54.63 s  ClockTime = 55 s

Courant Number mean: 1.71797e-07 max: 0.000221481
deltaT = 20.3717
Time = 133.309

PIMPLE: iteration 1
DILUPBiCGStab:  Solving for T, Initial residual = 0.0796122, Final residual = 6.7228e-07, No Iterations 18
DICPCG:  Solving for p_rgh, Initial residual = 0.0664803, Final residual = 0.000616041, No Iterations 27
time step continuity errors : sum local = 7.09601e-07, global = -2.61618e-22, cumulative = -1.87687e-21
DICPCG:  Solving for p_rgh, Initial residual = 0.000980874, Final residual = 9.01143e-09, No Iterations 167
time step continuity errors : sum local = 9.96903e-12, global = -3.3705e-22, cumulative = -2.21392e-21
ExecutionTime = 56.47 s  ClockTime = 57 s

Courant Number mean: 2.18175e-07 max: 0.000256702
deltaT = 24.4461
Time = 157.755

PIMPLE: iteration 1
DILUPBiCGStab:  Solving for T, Initial residual = 0.0844705, Final residual = 9.20002e-07, No Iterations 19
DICPCG:  Solving for p_rgh, Initial residual = 0.0652576, Final residual = 0.000602618, No Iterations 27
time step continuity errors : sum local = 8.93777e-07, global = 6.22832e-22, cumulative = -1.59109e-21
DICPCG:  Solving for p_rgh, Initial residual = 0.000953732, Final residual = 8.65233e-09, No Iterations 166
time step continuity errors : sum local = 1.23541e-11, global = 6.47087e-22, cumulative = -9.44002e-22
ExecutionTime = 58.28 s  ClockTime = 59 s

Courant Number mean: 2.92697e-07 max: 0.000310949
deltaT = 28.5204
Time = 186.275

PIMPLE: iteration 1
DILUPBiCGStab:  Solving for T, Initial residual = 0.0877247, Final residual = 8.02172e-07, No Iterations 21
DICPCG:  Solving for p_rgh, Initial residual = 0.0610031, Final residual = 0.000540786, No Iterations 28
time step continuity errors : sum local = 1.00207e-06, global = 2.07831e-22, cumulative = -7.36171e-22
DICPCG:  Solving for p_rgh, Initial residual = 0.000872672, Final residual = 8.26985e-09, No Iterations 166
time step continuity errors : sum local = 1.47742e-11, global = 5.18706e-26, cumulative = -7.36119e-22
ExecutionTime = 60.1 s  ClockTime = 61 s

Courant Number mean: 3.83211e-07 max: 0.000346453
deltaT = 31.3725
Time = 217.648

PIMPLE: iteration 1
DILUPBiCGStab:  Solving for T, Initial residual = 0.0874054, Final residual = 8.48631e-07, No Iterations 22
DICPCG:  Solving for p_rgh, Initial residual = 0.0531653, Final residual = 0.000436106, No Iterations 28
time step continuity errors : sum local = 9.49416e-07, global = 3.88621e-22, cumulative = -3.47499e-22
DICPCG:  Solving for p_rgh, Initial residual = 0.000693354, Final residual = 9.90453e-09, No Iterations 166
time step continuity errors : sum local = 2.07158e-11, global = -2.95126e-26, cumulative = -3.47528e-22
ExecutionTime = 61.97 s  ClockTime = 62 s

Courant Number mean: 4.79326e-07 max: 0.000355593
deltaT = 35.294
Time = 252.942

PIMPLE: iteration 1
DILUPBiCGStab:  Solving for T, Initial residual = 0.0893273, Final residual = 9.48741e-07, No Iterations 23
DICPCG:  Solving for p_rgh, Initial residual = 0.0467465, Final residual = 0.000405978, No Iterations 28
time step continuity errors : sum local = 1.04741e-06, global = -1.96344e-21, cumulative = -2.31097e-21
DICPCG:  Solving for p_rgh, Initial residual = 0.000635298, Final residual = 9.87922e-09, No Iterations 166
time step continuity errors : sum local = 2.45796e-11, global = -1.63482e-21, cumulative = -3.94579e-21
ExecutionTime = 63.81 s  ClockTime = 64 s

Courant Number mean: 6.24149e-07 max: 0.000360073
deltaT = 41.1764
Time = 294.118

PIMPLE: iteration 1
DILUPBiCGStab:  Solving for T, Initial residual = 0.0942849, Final residual = 7.4669e-07, No Iterations 26
DICPCG:  Solving for p_rgh, Initial residual = 0.0420824, Final residual = 0.000348837, No Iterations 28
time step continuity errors : sum local = 1.10498e-06, global = 2.56205e-21, cumulative = -1.38374e-21
DICPCG:  Solving for p_rgh, Initial residual = 0.000558741, Final residual = 9.97675e-09, No Iterations 165
time step continuity errors : sum local = 3.04443e-11, global = 1.635e-21, cumulative = 2.51264e-22
ExecutionTime = 65.69 s  ClockTime = 66 s

Courant Number mean: 8.43173e-07 max: 0.00037558
deltaT = 41.1764
Time = 335.295

PIMPLE: iteration 1
DILUPBiCGStab:  Solving for T, Initial residual = 0.0888049, Final residual = 9.10155e-07, No Iterations 25
DICPCG:  Solving for p_rgh, Initial residual = 0.0341235, Final residual = 0.000272687, No Iterations 28
time step continuity errors : sum local = 8.94717e-07, global = -5.15156e-23, cumulative = 1.99748e-22
DICPCG:  Solving for p_rgh, Initial residual = 0.000435519, Final residual = 9.19582e-09, No Iterations 164
time step continuity errors : sum local = 2.91749e-11, global = 5.48709e-26, cumulative = 1.99803e-22
ExecutionTime = 67.69 s  ClockTime = 68 s

Courant Number mean: 9.80685e-07 max: 0.000317118
deltaT = 41.1764
Time = 376.471

PIMPLE: iteration 1
DILUPBiCGStab:  Solving for T, Initial residual = 0.0844085, Final residual = 8.55892e-07, No Iterations 25
DICPCG:  Solving for p_rgh, Initial residual = 0.029065, Final residual = 0.000243587, No Iterations 28
time step continuity errors : sum local = 8.20956e-07, global = 1.29631e-20, cumulative = 1.31629e-20
DICPCG:  Solving for p_rgh, Initial residual = 0.000374286, Final residual = 8.4106e-09, No Iterations 163
time step continuity errors : sum local = 2.7483e-11, global = 1.30792e-20, cumulative = 2.62421e-20
ExecutionTime = 69.53 s  ClockTime = 70 s

Courant Number mean: 1.14423e-06 max: 0.000249419
deltaT = 41.1764
Time = 417.647

PIMPLE: iteration 1
DILUPBiCGStab:  Solving for T, Initial residual = 0.080749, Final residual = 9.54599e-07, No Iterations 23
DICPCG:  Solving for p_rgh, Initial residual = 0.0261235, Final residual = 0.000195627, No Iterations 28
time step continuity errors : sum local = 6.73707e-07, global = 1.20139e-21, cumulative = 2.74435e-20
DICPCG:  Solving for p_rgh, Initial residual = 0.000301095, Final residual = 9.13826e-09, No Iterations 160
time step continuity errors : sum local = 3.05738e-11, global = 1.08977e-21, cumulative = 2.85333e-20
ExecutionTime = 71.41 s  ClockTime = 72 s

Courant Number mean: 1.33882e-06 max: 0.000196071
deltaT = 41.1764
Time = 458.824

PIMPLE: iteration 1
DILUPBiCGStab:  Solving for T, Initial residual = 0.0776444, Final residual = 9.88904e-07, No Iterations 23
DICPCG:  Solving for p_rgh, Initial residual = 0.0252195, Final residual = 0.00024005, No Iterations 25
time step continuity errors : sum local = 8.31825e-07, global = -8.5684e-21, cumulative = 1.99649e-20
DICPCG:  Solving for p_rgh, Initial residual = 0.000358513, Final residual = 9.27855e-09, No Iterations 159
time step continuity errors : sum local = 3.16053e-11, global = -8.71936e-21, cumulative = 1.12455e-20
ExecutionTime = 73.24 s  ClockTime = 74 s

Courant Number mean: 1.56571e-06 max: 0.000151998
deltaT = 41.1764
Time = 500

PIMPLE: iteration 1
DILUPBiCGStab:  Solving for T, Initial residual = 0.0749382, Final residual = 9.11478e-07, No Iterations 23
DICPCG:  Solving for p_rgh, Initial residual = 0.0245959, Final residual = 0.000201302, No Iterations 25
time step continuity errors : sum local = 7.07354e-07, global = 1.37613e-22, cumulative = 1.13831e-20
DICPCG:  Solving for p_rgh, Initial residual = 0.000294183, Final residual = 9.68267e-09, No Iterations 158
time step continuity errors : sum local = 3.34816e-11, global = 1.65108e-25, cumulative = 1.13833e-20
ExecutionTime = 76.03 s  ClockTime = 77 s

Courant Number mean: 1.82175e-06 max: 0.000119677
deltaT = 45.4545
Time = 545.455

PIMPLE: iteration 1
DILUPBiCGStab:  Solving for T, Initial residual = 0.0781813, Final residual = 8.85991e-07, No Iterations 25
DICPCG:  Solving for p_rgh, Initial residual = 0.0264355, Final residual = 0.000189103, No Iterations 25
time step continuity errors : sum local = 7.41583e-07, global = 5.06175e-20, cumulative = 6.20008e-20
DICPCG:  Solving for p_rgh, Initial residual = 0.000280259, Final residual = 8.65181e-09, No Iterations 158
time step continuity errors : sum local = 3.34339e-11, global = 5.05334e-20, cumulative = 1.12534e-19
ExecutionTime = 77.82 s  ClockTime = 78 s

Courant Number mean: 2.3186e-06 max: 0.000105332
deltaT = 50.5051
Time = 595.96

PIMPLE: iteration 1
DILUPBiCGStab:  Solving for T, Initial residual = 0.0817388, Final residual = 4.33549e-07, No Iterations 24
DICPCG:  Solving for p_rgh, Initial residual = 0.0285203, Final residual = 0.000186885, No Iterations 25
time step continuity errors : sum local = 8.20602e-07, global = 1.06678e-20, cumulative = 1.23202e-19
DICPCG:  Solving for p_rgh, Initial residual = 0.000276845, Final residual = 9.66107e-09, No Iterations 157
time step continuity errors : sum local = 4.199e-11, global = 1.06952e-20, cumulative = 1.33897e-19
ExecutionTime = 79.65 s  ClockTime = 80 s

Courant Number mean: 2.90631e-06 max: 9.50973e-05
deltaT = 57.7201
Time = 653.68

PIMPLE: iteration 1
DILUPBiCGStab:  Solving for T, Initial residual = 0.0868604, Final residual = 7.82664e-07, No Iterations 24
DICPCG:  Solving for p_rgh, Initial residual = 0.031457, Final residual = 0.000195229, No Iterations 25
time step continuity errors : sum local = 9.87536e-07, global = 3.15537e-21, cumulative = 1.37053e-19
DICPCG:  Solving for p_rgh, Initial residual = 0.00028825, Final residual = 9.71049e-09, No Iterations 157
time step continuity errors : sum local = 4.87912e-11, global = 3.05539e-21, cumulative = 1.40108e-19
ExecutionTime = 81.44 s  ClockTime = 82 s

Courant Number mean: 3.69591e-06 max: 8.76646e-05
deltaT = 69.2641
Time = 722.944

PIMPLE: iteration 1
DILUPBiCGStab:  Solving for T, Initial residual = 0.0947412, Final residual = 9.46323e-07, No Iterations 28
DICPCG:  Solving for p_rgh, Initial residual = 0.0359567, Final residual = 0.00021475, No Iterations 25
time step continuity errors : sum local = 1.31991e-06, global = -7.39145e-21, cumulative = 1.32717e-19
DICPCG:  Solving for p_rgh, Initial residual = 0.000314449, Final residual = 9.94251e-09, No Iterations 157
time step continuity errors : sum local = 6.12082e-11, global = -7.3337e-21, cumulative = 1.25383e-19
ExecutionTime = 83.34 s  ClockTime = 84 s

Courant Number mean: 4.90255e-06 max: 8.52176e-05
deltaT = 69.2641
Time = 792.208

PIMPLE: iteration 1
DILUPBiCGStab:  Solving for T, Initial residual = 0.0906422, Final residual = 9.18624e-07, No Iterations 28
DICPCG:  Solving for p_rgh, Initial residual = 0.0340365, Final residual = 0.000196836, No Iterations 25
time step continuity errors : sum local = 1.23037e-06, global = -1.10202e-20, cumulative = 1.14363e-19
DICPCG:  Solving for p_rgh, Initial residual = 0.000286424, Final residual = 9.29839e-09, No Iterations 157
time step continuity errors : sum local = 5.83276e-11, global = -1.10002e-20, cumulative = 1.03362e-19
ExecutionTime = 85.25 s  ClockTime = 86 s

Courant Number mean: 5.38526e-06 max: 6.64361e-05
deltaT = 69.2641
Time = 861.472

PIMPLE: iteration 1
DILUPBiCGStab:  Solving for T, Initial residual = 0.0868013, Final residual = 9.5669e-07, No Iterations 28
DICPCG:  Solving for p_rgh, Initial residual = 0.0321756, Final residual = 0.000182892, No Iterations 25
time step continuity errors : sum local = 1.16295e-06, global = 4.7971e-23, cumulative = 1.0341e-19
DICPCG:  Solving for p_rgh, Initial residual = 0.000265961, Final residual = 8.60514e-09, No Iterations 157
time step continuity errors : sum local = 5.49592e-11, global = -5.17192e-25, cumulative = 1.0341e-19
ExecutionTime = 87.12 s  ClockTime = 88 s

Courant Number mean: 5.88676e-06 max: 4.90883e-05
deltaT = 69.2641
Time = 930.736

PIMPLE: iteration 1
DILUPBiCGStab:  Solving for T, Initial residual = 0.0831731, Final residual = 9.67578e-07, No Iterations 28
DICPCG:  Solving for p_rgh, Initial residual = 0.0303713, Final residual = 0.000170725, No Iterations 25
time step continuity errors : sum local = 1.10403e-06, global = 7.68975e-20, cumulative = 1.80307e-19
DICPCG:  Solving for p_rgh, Initial residual = 0.000247918, Final residual = 9.57946e-09, No Iterations 156
time step continuity errors : sum local = 6.22883e-11, global = 7.70033e-20, cumulative = 2.57311e-19
ExecutionTime = 88.96 s  ClockTime = 89 s

Courant Number mean: 6.40749e-06 max: 3.67098e-05
deltaT = 69.2641
Time = 1000

PIMPLE: iteration 1
DILUPBiCGStab:  Solving for T, Initial residual = 0.0797042, Final residual = 9.32169e-07, No Iterations 28
DICPCG:  Solving for p_rgh, Initial residual = 0.028643, Final residual = 0.000159806, No Iterations 25
time step continuity errors : sum local = 1.05137e-06, global = -7.35461e-21, cumulative = 2.49956e-19
DICPCG:  Solving for p_rgh, Initial residual = 0.000231946, Final residual = 9.07238e-09, No Iterations 156
time step continuity errors : sum local = 6.00442e-11, global = -7.33475e-21, cumulative = 2.42621e-19
ExecutionTime = 91.81 s  ClockTime = 92 s

Courant Number mean: 6.94376e-06 max: 2.85871e-05
deltaT = 71.4286
Time = 1071.43

PIMPLE: iteration 1
DILUPBiCGStab:  Solving for T, Initial residual = 0.0779813, Final residual = 8.58562e-07, No Iterations 28
DICPCG:  Solving for p_rgh, Initial residual = 0.0277957, Final residual = 0.000154505, No Iterations 25
time step continuity errors : sum local = 1.0667e-06, global = 1.5012e-20, cumulative = 2.57633e-19
DICPCG:  Solving for p_rgh, Initial residual = 0.000224187, Final residual = 8.83356e-09, No Iterations 156
time step continuity errors : sum local = 6.13996e-11, global = 1.5125e-20, cumulative = 2.72758e-19
ExecutionTime = 93.65 s  ClockTime = 94 s

Courant Number mean: 7.72139e-06 max: 2.48191e-05
deltaT = 71.4286
Time = 1142.86

PIMPLE: iteration 1
DILUPBiCGStab:  Solving for T, Initial residual = 0.0746533, Final residual = 9.34025e-07, No Iterations 28
DICPCG:  Solving for p_rgh, Initial residual = 0.0261242, Final residual = 0.0001445, No Iterations 25
time step continuity errors : sum local = 1.01593e-06, global = 1.52232e-20, cumulative = 2.87981e-19
DICPCG:  Solving for p_rgh, Initial residual = 0.000209433, Final residual = 9.39358e-09, No Iterations 104
time step continuity errors : sum local = 7.73067e-11, global = 1.51271e-20, cumulative = 3.03109e-19
ExecutionTime = 95.2 s  ClockTime = 96 s

Courant Number mean: 8.29636e-06 max: 2.09573e-05
deltaT = 71.4286
Time = 1214.29

PIMPLE: iteration 1
DILUPBiCGStab:  Solving for T, Initial residual = 0.0714716, Final residual = 9.35024e-07, No Iterations 28
DICPCG:  Solving for p_rgh, Initial residual = 0.0245316, Final residual = 0.000135403, No Iterations 25
time step continuity errors : sum local = 9.69968e-07, global = -7.44929e-21, cumulative = 2.95659e-19
DICPCG:  Solving for p_rgh, Initial residual = 0.000196179, Final residual = 9.1354e-09, No Iterations 155
time step continuity errors : sum local = 6.59321e-11, global = -7.56276e-21, cumulative = 2.88097e-19
ExecutionTime = 96.99 s  ClockTime = 98 s

Courant Number mean: 8.88389e-06 max: 2.17326e-05
deltaT = 71.4286
Time = 1285.71

PIMPLE: iteration 1
DILUPBiCGStab:  Solving for T, Initial residual = 0.0684266, Final residual = 9.03185e-07, No Iterations 28
DICPCG:  Solving for p_rgh, Initial residual = 0.0230216, Final residual = 0.000126877, No Iterations 25
time step continuity errors : sum local = 9.26419e-07, global = 3.01012e-20, cumulative = 3.18198e-19
DICPCG:  Solving for p_rgh, Initial residual = 0.000183767, Final residual = 9.43792e-09, No Iterations 154
time step continuity errors : sum local = 6.9449e-11, global = 3.02492e-20, cumulative = 3.48447e-19
ExecutionTime = 98.79 s  ClockTime = 99 s

Courant Number mean: 9.47979e-06 max: 2.29681e-05
deltaT = 71.4286
Time = 1357.14

PIMPLE: iteration 1
DILUPBiCGStab:  Solving for T, Initial residual = 0.0655106, Final residual = 8.64724e-07, No Iterations 28
DICPCG:  Solving for p_rgh, Initial residual = 0.0215919, Final residual = 0.00011888, No Iterations 25
time step continuity errors : sum local = 8.85168e-07, global = -5.30496e-20, cumulative = 2.95397e-19
DICPCG:  Solving for p_rgh, Initial residual = 0.000172133, Final residual = 8.83066e-09, No Iterations 154
time step continuity errors : sum local = 6.62846e-11, global = -5.29398e-20, cumulative = 2.42458e-19
ExecutionTime = 100.57 s  ClockTime = 101 s

Courant Number mean: 1.00796e-05 max: 2.42089e-05
deltaT = 71.4286
Time = 1428.57

PIMPLE: iteration 1
DILUPBiCGStab:  Solving for T, Initial residual = 0.0627147, Final residual = 8.27838e-07, No Iterations 28
DICPCG:  Solving for p_rgh, Initial residual = 0.0202387, Final residual = 0.000111356, No Iterations 25
time step continuity errors : sum local = 8.45941e-07, global = 3.01531e-20, cumulative = 2.72611e-19
DICPCG:  Solving for p_rgh, Initial residual = 0.000161189, Final residual = 9.71535e-09, No Iterations 153
time step continuity errors : sum local = 7.44172e-11, global = 3.0251e-20, cumulative = 3.02862e-19
ExecutionTime = 102.39 s  ClockTime = 103 s

Courant Number mean: 1.06797e-05 max: 2.54556e-05
deltaT = 71.4286
Time = 1500

PIMPLE: iteration 1
DILUPBiCGStab:  Solving for T, Initial residual = 0.060023, Final residual = 7.92313e-07, No Iterations 28
DICPCG:  Solving for p_rgh, Initial residual = 0.0189588, Final residual = 0.000104268, No Iterations 25
time step continuity errors : sum local = 8.08582e-07, global = 3.77264e-20, cumulative = 3.40588e-19
DICPCG:  Solving for p_rgh, Initial residual = 0.000150882, Final residual = 9.06698e-09, No Iterations 153
time step continuity errors : sum local = 7.09189e-11, global = 3.78143e-20, cumulative = 3.78402e-19
ExecutionTime = 105.27 s  ClockTime = 106 s

Courant Number mean: 1.1277e-05 max: 2.66919e-05
deltaT = 83.3333
Time = 1583.33

PIMPLE: iteration 1
DILUPBiCGStab:  Solving for T, Initial residual = 0.0635287, Final residual = 9.81188e-07, No Iterations 29
DICPCG:  Solving for p_rgh, Initial residual = 0.02052, Final residual = 0.000113533, No Iterations 25
time step continuity errors : sum local = 1.05093e-06, global = 8.83724e-20, cumulative = 4.66775e-19
DICPCG:  Solving for p_rgh, Initial residual = 0.000164372, Final residual = 9.73516e-09, No Iterations 153
time step continuity errors : sum local = 9.10887e-11, global = 8.82343e-20, cumulative = 5.55009e-19
ExecutionTime = 107.26 s  ClockTime = 108 s

Courant Number mean: 1.38632e-05 max: 3.25789e-05
deltaT = 83.3333
Time = 1666.67

PIMPLE: iteration 1
DILUPBiCGStab:  Solving for T, Initial residual = 0.0603604, Final residual = 9.12159e-07, No Iterations 29
DICPCG:  Solving for p_rgh, Initial residual = 0.0189865, Final residual = 0.00010438, No Iterations 25
time step continuity errors : sum local = 9.91374e-07, global = -9.08085e-21, cumulative = 5.45928e-19
DICPCG:  Solving for p_rgh, Initial residual = 0.000150594, Final residual = 9.03392e-09, No Iterations 153
time step continuity errors : sum local = 8.67664e-11, global = -8.82104e-21, cumulative = 5.37107e-19
ExecutionTime = 109.03 s  ClockTime = 110 s

Courant Number mean: 1.45696e-05 max: 3.40255e-05
deltaT = 83.3333
Time = 1750

PIMPLE: iteration 1
DILUPBiCGStab:  Solving for T, Initial residual = 0.0573467, Final residual = 9.07405e-07, No Iterations 28
DICPCG:  Solving for p_rgh, Initial residual = 0.0175495, Final residual = 9.64807e-05, No Iterations 25
time step continuity errors : sum local = 9.40997e-07, global = -1.79482e-23, cumulative = 5.37089e-19
DICPCG:  Solving for p_rgh, Initial residual = 0.000139129, Final residual = 8.31612e-09, No Iterations 153
time step continuity errors : sum local = 8.20633e-11, global = 6.19634e-25, cumulative = 5.3709e-19
ExecutionTime = 110.78 s  ClockTime = 111 s

Courant Number mean: 1.52767e-05 max: 3.55561e-05
deltaT = 83.3333
Time = 1833.33

PIMPLE: iteration 1
DILUPBiCGStab:  Solving for T, Initial residual = 0.054481, Final residual = 8.33067e-07, No Iterations 29
DICPCG:  Solving for p_rgh, Initial residual = 0.0162053, Final residual = 8.90242e-05, No Iterations 25
time step continuity errors : sum local = 8.92562e-07, global = -1.33656e-22, cumulative = 5.36956e-19
DICPCG:  Solving for p_rgh, Initial residual = 0.000128351, Final residual = 7.68203e-09, No Iterations 153
time step continuity errors : sum local = 7.7963e-11, global = 1.27924e-24, cumulative = 5.36957e-19
ExecutionTime = 112.53 s  ClockTime = 113 s

Courant Number mean: 1.59753e-05 max: 3.70441e-05
deltaT = 83.3333
Time = 1916.67

PIMPLE: iteration 1
DILUPBiCGStab:  Solving for T, Initial residual = 0.0517564, Final residual = 7.14782e-07, No Iterations 28
DICPCG:  Solving for p_rgh, Initial residual = 0.0149677, Final residual = 8.22488e-05, No Iterations 25
time step continuity errors : sum local = 8.47449e-07, global = -3.70239e-23, cumulative = 5.3692e-19
DICPCG:  Solving for p_rgh, Initial residual = 0.000118648, Final residual = 9.90366e-09, No Iterations 152
time step continuity errors : sum local = 1.03212e-10, global = 1.37033e-24, cumulative = 5.36922e-19
ExecutionTime = 114.3 s  ClockTime = 115 s

Courant Number mean: 1.6654e-05 max: 3.84913e-05
deltaT = 83.3333
Time = 2000

PIMPLE: iteration 1
DILUPBiCGStab:  Solving for T, Initial residual = 0.049166, Final residual = 9.34709e-07, No Iterations 28
DICPCG:  Solving for p_rgh, Initial residual = 0.0138484, Final residual = 7.61037e-05, No Iterations 25
time step continuity errors : sum local = 8.04456e-07, global = 1.20269e-22, cumulative = 5.37042e-19
DICPCG:  Solving for p_rgh, Initial residual = 0.000109889, Final residual = 9.17171e-09, No Iterations 152
time step continuity errors : sum local = 9.79649e-11, global = 1.7834e-24, cumulative = 5.37044e-19
ExecutionTime = 117.16 s  ClockTime = 118 s

Courant Number mean: 1.73423e-05 max: 3.99646e-05
deltaT = 100
Time = 2100

PIMPLE: iteration 1
DILUPBiCGStab:  Solving for T, Initial residual = 0.0522427, Final residual = 7.68708e-07, No Iterations 31
DICPCG:  Solving for p_rgh, Initial residual = 0.0152169, Final residual = 8.41841e-05, No Iterations 25
time step continuity errors : sum local = 1.09566e-06, global = 7.77703e-23, cumulative = 5.37122e-19
DICPCG:  Solving for p_rgh, Initial residual = 0.000121804, Final residual = 7.17708e-09, No Iterations 153
time step continuity errors : sum local = 9.45186e-11, global = -2.42563e-24, cumulative = 5.37119e-19
ExecutionTime = 119.03 s  ClockTime = 120 s

Courant Number mean: 2.16052e-05 max: 4.95585e-05
deltaT = 100
Time = 2200

PIMPLE: iteration 1
DILUPBiCGStab:  Solving for T, Initial residual = 0.0491328, Final residual = 7.38114e-07, No Iterations 31
DICPCG:  Solving for p_rgh, Initial residual = 0.0139331, Final residual = 7.65432e-05, No Iterations 25
time step continuity errors : sum local = 1.02249e-06, global = 5.29315e-20, cumulative = 5.90051e-19
DICPCG:  Solving for p_rgh, Initial residual = 0.000110479, Final residual = 9.23854e-09, No Iterations 152
time step continuity errors : sum local = 1.24709e-10, global = 5.29392e-20, cumulative = 6.4299e-19
ExecutionTime = 120.91 s  ClockTime = 121 s

Courant Number mean: 2.2365e-05 max: 5.10238e-05
deltaT = 100
Time = 2300

PIMPLE: iteration 1
DILUPBiCGStab:  Solving for T, Initial residual = 0.0462055, Final residual = 7.42251e-07, No Iterations 31
DICPCG:  Solving for p_rgh, Initial residual = 0.0127852, Final residual = 7.02437e-05, No Iterations 25
time step continuity errors : sum local = 9.60808e-07, global = -3.49593e-19, cumulative = 2.93397e-19
DICPCG:  Solving for p_rgh, Initial residual = 0.00010149, Final residual = 8.4622e-09, No Iterations 152
time step continuity errors : sum local = 1.16853e-10, global = -3.49408e-19, cumulative = -5.60111e-20
ExecutionTime = 122.77 s  ClockTime = 123 s

Courant Number mean: 2.30995e-05 max: 5.24461e-05
deltaT = 100
Time = 2400

PIMPLE: iteration 1
DILUPBiCGStab:  Solving for T, Initial residual = 0.0434444, Final residual = 9.49869e-07, No Iterations 30
DICPCG:  Solving for p_rgh, Initial residual = 0.0117545, Final residual = 6.45485e-05, No Iterations 25
time step continuity errors : sum local = 9.02388e-07, global = 7.41168e-20, cumulative = 1.81057e-20
DICPCG:  Solving for p_rgh, Initial residual = 9.3366e-05, Final residual = 9.81913e-09, No Iterations 151
time step continuity errors : sum local = 1.38448e-10, global = 7.41179e-20, cumulative = 9.22237e-20
ExecutionTime = 124.68 s  ClockTime = 125 s

Courant Number mean: 2.38462e-05 max: 5.39286e-05
deltaT = 100
Time = 2500

PIMPLE: iteration 1
DILUPBiCGStab:  Solving for T, Initial residual = 0.0408433, Final residual = 4.18472e-07, No Iterations 29
DICPCG:  Solving for p_rgh, Initial residual = 0.0108258, Final residual = 5.94188e-05, No Iterations 25
time step continuity errors : sum local = 8.47493e-07, global = 3.28302e-19, cumulative = 4.20526e-19
DICPCG:  Solving for p_rgh, Initial residual = 8.60374e-05, Final residual = 9.68696e-09, No Iterations 150
time step continuity errors : sum local = 1.39241e-10, global = 3.28223e-19, cumulative = 7.48749e-19
ExecutionTime = 127.55 s  ClockTime = 128 s

Courant Number mean: 2.45123e-05 max: 5.52462e-05
deltaT = 100
Time = 2600

PIMPLE: iteration 1
DILUPBiCGStab:  Solving for T, Initial residual = 0.0383967, Final residual = 7.6395e-07, No Iterations 31
DICPCG:  Solving for p_rgh, Initial residual = 0.00998605, Final residual = 5.48449e-05, No Iterations 25
time step continuity errors : sum local = 7.96833e-07, global = 2.12258e-20, cumulative = 7.69975e-19
DICPCG:  Solving for p_rgh, Initial residual = 7.94445e-05, Final residual = 8.93445e-09, No Iterations 150
time step continuity errors : sum local = 1.30723e-10, global = 2.1176e-20, cumulative = 7.91151e-19
ExecutionTime = 129.47 s  ClockTime = 130 s

Courant Number mean: 2.51596e-05 max: 5.63991e-05
deltaT = 100
Time = 2700

PIMPLE: iteration 1
DILUPBiCGStab:  Solving for T, Initial residual = 0.0360956, Final residual = 6.06132e-07, No Iterations 30
DICPCG:  Solving for p_rgh, Initial residual = 0.00922451, Final residual = 5.06439e-05, No Iterations 25
time step continuity errors : sum local = 7.4847e-07, global = -1.69509e-19, cumulative = 6.21642e-19
DICPCG:  Solving for p_rgh, Initial residual = 7.34227e-05, Final residual = 9.2941e-09, No Iterations 149
time step continuity errors : sum local = 1.38232e-10, global = -1.69405e-19, cumulative = 4.52237e-19
ExecutionTime = 131.27 s  ClockTime = 132 s

Courant Number mean: 2.57813e-05 max: 5.75193e-05
deltaT = 100
Time = 2800

PIMPLE: iteration 1
DILUPBiCGStab:  Solving for T, Initial residual = 0.0339315, Final residual = 7.84033e-07, No Iterations 27
DICPCG:  Solving for p_rgh, Initial residual = 0.00853223, Final residual = 4.68629e-05, No Iterations 25
time step continuity errors : sum local = 7.03589e-07, global = -2.09622e-23, cumulative = 4.52216e-19
DICPCG:  Solving for p_rgh, Initial residual = 6.79711e-05, Final residual = 8.60122e-09, No Iterations 149
time step continuity errors : sum local = 1.2988e-10, global = -1.15939e-24, cumulative = 4.52215e-19
ExecutionTime = 133.07 s  ClockTime = 134 s

Courant Number mean: 2.64128e-05 max: 5.86457e-05
deltaT = 100
Time = 2900

PIMPLE: iteration 1
DILUPBiCGStab:  Solving for T, Initial residual = 0.0318963, Final residual = 9.33193e-07, No Iterations 29
DICPCG:  Solving for p_rgh, Initial residual = 0.00790082, Final residual = 4.33635e-05, No Iterations 25
time step continuity errors : sum local = 6.60627e-07, global = -3.6004e-19, cumulative = 9.21751e-20
DICPCG:  Solving for p_rgh, Initial residual = 6.29489e-05, Final residual = 9.50559e-09, No Iterations 148
time step continuity errors : sum local = 1.4559e-10, global = -3.59987e-19, cumulative = -2.67812e-19
ExecutionTime = 134.81 s  ClockTime = 135 s

Courant Number mean: 2.70749e-05 max: 5.99478e-05
deltaT = 100
Time = 3000

PIMPLE: iteration 1
DILUPBiCGStab:  Solving for T, Initial residual = 0.0299824, Final residual = 9.88899e-07, No Iterations 26
DICPCG:  Solving for p_rgh, Initial residual = 0.00732448, Final residual = 4.01962e-05, No Iterations 25
time step continuity errors : sum local = 6.20706e-07, global = 2.75384e-19, cumulative = 7.57206e-21
DICPCG:  Solving for p_rgh, Initial residual = 5.83837e-05, Final residual = 8.81666e-09, No Iterations 148
time step continuity errors : sum local = 1.36807e-10, global = 2.75286e-19, cumulative = 2.82858e-19
ExecutionTime = 137.55 s  ClockTime = 138 s

Courant Number mean: 2.77469e-05 max: 6.11061e-05
deltaT = 100
Time = 3100

PIMPLE: iteration 1
DILUPBiCGStab:  Solving for T, Initial residual = 0.0281828, Final residual = 9.87415e-07, No Iterations 28
DICPCG:  Solving for p_rgh, Initial residual = 0.00679631, Final residual = 3.73246e-05, No Iterations 25
time step continuity errors : sum local = 5.83637e-07, global = -4.24154e-20, cumulative = 2.40443e-19
DICPCG:  Solving for p_rgh, Initial residual = 5.42195e-05, Final residual = 9.75755e-09, No Iterations 147
time step continuity errors : sum local = 1.53227e-10, global = -4.23523e-20, cumulative = 1.98091e-19
ExecutionTime = 139.27 s  ClockTime = 140 s

Courant Number mean: 2.8449e-05 max: 6.25157e-05
deltaT = 100
Time = 3200

PIMPLE: iteration 1
DILUPBiCGStab:  Solving for T, Initial residual = 0.0264897, Final residual = 9.66361e-07, No Iterations 28
DICPCG:  Solving for p_rgh, Initial residual = 0.00631218, Final residual = 3.46794e-05, No Iterations 25
time step continuity errors : sum local = 5.48627e-07, global = -4.23535e-20, cumulative = 1.55737e-19
DICPCG:  Solving for p_rgh, Initial residual = 5.03963e-05, Final residual = 9.40896e-09, No Iterations 145
time step continuity errors : sum local = 1.49407e-10, global = -4.23567e-20, cumulative = 1.13381e-19
ExecutionTime = 141.06 s  ClockTime = 142 s

Courant Number mean: 2.91779e-05 max: 6.40373e-05
deltaT = 100
Time = 3300

PIMPLE: iteration 1
DILUPBiCGStab:  Solving for T, Initial residual = 0.0248953, Final residual = 9.0762e-07, No Iterations 28
DICPCG:  Solving for p_rgh, Initial residual = 0.0058674, Final residual = 3.22075e-05, No Iterations 25
time step continuity errors : sum local = 5.15061e-07, global = 2.12172e-20, cumulative = 1.34598e-19
DICPCG:  Solving for p_rgh, Initial residual = 4.6836e-05, Final residual = 9.57786e-09, No Iterations 144
time step continuity errors : sum local = 1.53701e-10, global = 2.11746e-20, cumulative = 1.55772e-19
ExecutionTime = 142.82 s  ClockTime = 143 s

Courant Number mean: 2.99208e-05 max: 6.56083e-05
deltaT = 100
Time = 3400

PIMPLE: iteration 1
DILUPBiCGStab:  Solving for T, Initial residual = 0.0233966, Final residual = 9.38391e-07, No Iterations 29
DICPCG:  Solving for p_rgh, Initial residual = 0.00545805, Final residual = 2.99606e-05, No Iterations 25
time step continuity errors : sum local = 4.83973e-07, global = 4.2449e-20, cumulative = 1.98221e-19
DICPCG:  Solving for p_rgh, Initial residual = 4.35834e-05, Final residual = 8.91203e-09, No Iterations 144
time step continuity errors : sum local = 1.44409e-10, global = 4.23562e-20, cumulative = 2.40578e-19
ExecutionTime = 144.53 s  ClockTime = 145 s

Courant Number mean: 3.06795e-05 max: 6.71933e-05
deltaT = 100
Time = 3500

PIMPLE: iteration 1
DILUPBiCGStab:  Solving for T, Initial residual = 0.0219869, Final residual = 9.21747e-07, No Iterations 28
DICPCG:  Solving for p_rgh, Initial residual = 0.00508082, Final residual = 2.78951e-05, No Iterations 25
time step continuity errors : sum local = 4.54844e-07, global = 1.483e-19, cumulative = 3.88878e-19
DICPCG:  Solving for p_rgh, Initial residual = 4.05896e-05, Final residual = 9.93769e-09, No Iterations 142
time step continuity errors : sum local = 1.62501e-10, global = 1.48233e-19, cumulative = 5.3711e-19
ExecutionTime = 147.28 s  ClockTime = 148 s

Courant Number mean: 3.14509e-05 max: 6.88255e-05
deltaT = 100
Time = 3600

PIMPLE: iteration 1
DILUPBiCGStab:  Solving for T, Initial residual = 0.020662, Final residual = 8.49437e-07, No Iterations 28
DICPCG:  Solving for p_rgh, Initial residual = 0.00473269, Final residual = 2.5982e-05, No Iterations 25
time step continuity errors : sum local = 4.27359e-07, global = -4.2383e-20, cumulative = 4.94727e-19
DICPCG:  Solving for p_rgh, Initial residual = 3.78196e-05, Final residual = 9.2574e-09, No Iterations 142
time step continuity errors : sum local = 1.52655e-10, global = -4.23505e-20, cumulative = 4.52377e-19
ExecutionTime = 149.04 s  ClockTime = 150 s

Courant Number mean: 3.22227e-05 max: 7.04535e-05
deltaT = 100
Time = 3700

PIMPLE: iteration 1
DILUPBiCGStab:  Solving for T, Initial residual = 0.0194168, Final residual = 9.89039e-07, No Iterations 27
DICPCG:  Solving for p_rgh, Initial residual = 0.00441103, Final residual = 2.42189e-05, No Iterations 25
time step continuity errors : sum local = 4.01606e-07, global = 6.35151e-20, cumulative = 5.15892e-19
DICPCG:  Solving for p_rgh, Initial residual = 3.52609e-05, Final residual = 9.93676e-09, No Iterations 141
time step continuity errors : sum local = 1.65176e-10, global = 6.35302e-20, cumulative = 5.79422e-19
ExecutionTime = 150.71 s  ClockTime = 151 s

Courant Number mean: 3.30149e-05 max: 7.21547e-05
deltaT = 100
Time = 3800

PIMPLE: iteration 1
DILUPBiCGStab:  Solving for T, Initial residual = 0.0182466, Final residual = 7.48115e-07, No Iterations 28
DICPCG:  Solving for p_rgh, Initial residual = 0.00411353, Final residual = 2.25821e-05, No Iterations 25
time step continuity errors : sum local = 3.77314e-07, global = -2.3294e-19, cumulative = 3.46482e-19
DICPCG:  Solving for p_rgh, Initial residual = 3.28899e-05, Final residual = 9.60263e-09, No Iterations 140
time step continuity errors : sum local = 1.60793e-10, global = -2.32936e-19, cumulative = 1.13546e-19
ExecutionTime = 152.4 s  ClockTime = 153 s

Courant Number mean: 3.37906e-05 max: 7.37843e-05
deltaT = 100
Time = 3900

PIMPLE: iteration 1
DILUPBiCGStab:  Solving for T, Initial residual = 0.0171467, Final residual = 8.91396e-07, No Iterations 27
DICPCG:  Solving for p_rgh, Initial residual = 0.003838, Final residual = 2.1036e-05, No Iterations 25
time step continuity errors : sum local = 3.53968e-07, global = 1.05853e-19, cumulative = 2.19399e-19
DICPCG:  Solving for p_rgh, Initial residual = 3.06628e-05, Final residual = 9.4808e-09, No Iterations 139
time step continuity errors : sum local = 1.59845e-10, global = 1.05885e-19, cumulative = 3.25284e-19
ExecutionTime = 154.1 s  ClockTime = 155 s

Courant Number mean: 3.45681e-05 max: 7.54247e-05
deltaT = 100
Time = 4000

PIMPLE: iteration 1
DILUPBiCGStab:  Solving for T, Initial residual = 0.0161131, Final residual = 9.46224e-07, No Iterations 26
DICPCG:  Solving for p_rgh, Initial residual = 0.00358266, Final residual = 1.97008e-05, No Iterations 25
time step continuity errors : sum local = 3.33696e-07, global = -4.24138e-20, cumulative = 2.8287e-19
DICPCG:  Solving for p_rgh, Initial residual = 2.869e-05, Final residual = 8.86899e-09, No Iterations 139
time step continuity errors : sum local = 1.50485e-10, global = -4.23528e-20, cumulative = 2.40517e-19
ExecutionTime = 156.85 s  ClockTime = 157 s

Courant Number mean: 3.53645e-05 max: 7.71257e-05
deltaT = 100
Time = 4100

PIMPLE: iteration 1
DILUPBiCGStab:  Solving for T, Initial residual = 0.0151417, Final residual = 9.25004e-07, No Iterations 27
DICPCG:  Solving for p_rgh, Initial residual = 0.00334572, Final residual = 1.83603e-05, No Iterations 25
time step continuity errors : sum local = 3.12907e-07, global = 1.4823e-19, cumulative = 3.88747e-19
DICPCG:  Solving for p_rgh, Initial residual = 2.67625e-05, Final residual = 8.27407e-09, No Iterations 139
time step continuity errors : sum local = 1.41228e-10, global = 1.48234e-19, cumulative = 5.36982e-19
ExecutionTime = 158.48 s  ClockTime = 159 s

Courant Number mean: 3.6171e-05 max: 7.88658e-05
deltaT = 100
Time = 4200

PIMPLE: iteration 1
DILUPBiCGStab:  Solving for T, Initial residual = 0.0142288, Final residual = 8.41614e-07, No Iterations 24
DICPCG:  Solving for p_rgh, Initial residual = 0.00312589, Final residual = 1.71751e-05, No Iterations 25
time step continuity errors : sum local = 2.94396e-07, global = -1.05834e-19, cumulative = 4.31148e-19
DICPCG:  Solving for p_rgh, Initial residual = 2.50296e-05, Final residual = 9.59174e-09, No Iterations 138
time step continuity errors : sum local = 1.64626e-10, global = -1.05883e-19, cumulative = 3.25264e-19
ExecutionTime = 160.16 s  ClockTime = 161 s

Courant Number mean: 3.69584e-05 max: 8.03841e-05
deltaT = 100
Time = 4300

PIMPLE: iteration 1
DILUPBiCGStab:  Solving for T, Initial residual = 0.0133708, Final residual = 9.89154e-07, No Iterations 26
DICPCG:  Solving for p_rgh, Initial residual = 0.00292125, Final residual = 1.60438e-05, No Iterations 25
time step continuity errors : sum local = 2.76484e-07, global = -6.47245e-24, cumulative = 3.25258e-19
DICPCG:  Solving for p_rgh, Initial residual = 2.33856e-05, Final residual = 8.96792e-09, No Iterations 138
time step continuity errors : sum local = 1.54721e-10, global = -4.91618e-25, cumulative = 3.25257e-19
ExecutionTime = 161.85 s  ClockTime = 162 s

Courant Number mean: 3.77652e-05 max: 8.20865e-05
deltaT = 100
Time = 4400

PIMPLE: iteration 1
DILUPBiCGStab:  Solving for T, Initial residual = 0.0125646, Final residual = 8.10257e-07, No Iterations 27
DICPCG:  Solving for p_rgh, Initial residual = 0.00273123, Final residual = 1.49926e-05, No Iterations 25
time step continuity errors : sum local = 2.59674e-07, global = 2.11617e-20, cumulative = 3.46419e-19
DICPCG:  Solving for p_rgh, Initial residual = 2.18654e-05, Final residual = 9.5549e-09, No Iterations 137
time step continuity errors : sum local = 1.656e-10, global = 2.11696e-20, cumulative = 3.67589e-19
ExecutionTime = 163.56 s  ClockTime = 164 s

Courant Number mean: 3.85632e-05 max: 8.37752e-05
deltaT = 100
Time = 4500

PIMPLE: iteration 1
DILUPBiCGStab:  Solving for T, Initial residual = 0.0118069, Final residual = 9.84628e-07, No Iterations 26
DICPCG:  Solving for p_rgh, Initial residual = 0.00255433, Final residual = 1.40315e-05, No Iterations 25
time step continuity errors : sum local = 2.44165e-07, global = -1.27053e-19, cumulative = 2.40535e-19
DICPCG:  Solving for p_rgh, Initial residual = 2.0459e-05, Final residual = 9.59475e-09, No Iterations 136
time step continuity errors : sum local = 1.67056e-10, global = -1.27054e-19, cumulative = 1.13481e-19
ExecutionTime = 166.21 s  ClockTime = 167 s

Courant Number mean: 3.93804e-05 max: 8.55565e-05
deltaT = 100
Time = 4600

PIMPLE: iteration 1
DILUPBiCGStab:  Solving for T, Initial residual = 0.0110948, Final residual = 9.9322e-07, No Iterations 26
DICPCG:  Solving for p_rgh, Initial residual = 0.00238964, Final residual = 1.31147e-05, No Iterations 25
time step continuity errors : sum local = 2.29222e-07, global = -2.75282e-19, cumulative = -1.61801e-19
DICPCG:  Solving for p_rgh, Initial residual = 1.91339e-05, Final residual = 8.98251e-09, No Iterations 136
time step continuity errors : sum local = 1.5706e-10, global = -2.75282e-19, cumulative = -4.37082e-19
ExecutionTime = 167.88 s  ClockTime = 168 s

Courant Number mean: 4.02155e-05 max: 8.73963e-05
deltaT = 100
Time = 4700

PIMPLE: iteration 1
DILUPBiCGStab:  Solving for T, Initial residual = 0.0104257, Final residual = 9.88284e-07, No Iterations 25
DICPCG:  Solving for p_rgh, Initial residual = 0.0022362, Final residual = 1.22771e-05, No Iterations 25
time step continuity errors : sum local = 2.15461e-07, global = -2.11916e-20, cumulative = -4.58274e-19
DICPCG:  Solving for p_rgh, Initial residual = 1.79102e-05, Final residual = 8.40203e-09, No Iterations 136
time step continuity errors : sum local = 1.47496e-10, global = -2.11792e-20, cumulative = -4.79453e-19
ExecutionTime = 169.54 s  ClockTime = 170 s

Courant Number mean: 4.10657e-05 max: 8.92795e-05
deltaT = 100
Time = 4800

PIMPLE: iteration 1
DILUPBiCGStab:  Solving for T, Initial residual = 0.00979689, Final residual = 9.50072e-07, No Iterations 24
DICPCG:  Solving for p_rgh, Initial residual = 0.00209316, Final residual = 1.15092e-05, No Iterations 25
time step continuity errors : sum local = 2.02766e-07, global = -4.23529e-20, cumulative = -5.21806e-19
DICPCG:  Solving for p_rgh, Initial residual = 1.67837e-05, Final residual = 7.8591e-09, No Iterations 136
time step continuity errors : sum local = 1.38478e-10, global = -4.2351e-20, cumulative = -5.64157e-19
ExecutionTime = 171.19 s  ClockTime = 172 s

Courant Number mean: 4.19217e-05 max: 9.11624e-05
deltaT = 100
Time = 4900

PIMPLE: iteration 1
DILUPBiCGStab:  Solving for T, Initial residual = 0.00920597, Final residual = 9.42895e-07, No Iterations 24
DICPCG:  Solving for p_rgh, Initial residual = 0.00195975, Final residual = 1.07429e-05, No Iterations 25
time step continuity errors : sum local = 1.89945e-07, global = -4.23098e-20, cumulative = -6.06467e-19
DICPCG:  Solving for p_rgh, Initial residual = 1.56849e-05, Final residual = 9.76731e-09, No Iterations 135
time step continuity errors : sum local = 1.72705e-10, global = -4.23524e-20, cumulative = -6.48819e-19
ExecutionTime = 172.83 s  ClockTime = 173 s

Courant Number mean: 4.2781e-05 max: 9.30475e-05
deltaT = 100
Time = 5000

PIMPLE: iteration 1
DILUPBiCGStab:  Solving for T, Initial residual = 0.00865048, Final residual = 9.52973e-07, No Iterations 24
DICPCG:  Solving for p_rgh, Initial residual = 0.00183523, Final residual = 1.00862e-05, No Iterations 25
time step continuity errors : sum local = 1.78939e-07, global = 1.27055e-19, cumulative = -5.21764e-19
DICPCG:  Solving for p_rgh, Initial residual = 1.47144e-05, Final residual = 9.12929e-09, No Iterations 135
time step continuity errors : sum local = 1.6195e-10, global = 1.27052e-19, cumulative = -3.94712e-19
ExecutionTime = 175.47 s  ClockTime = 176 s

Courant Number mean: 4.36435e-05 max: 9.49468e-05
deltaT = 100
Time = 5100

PIMPLE: iteration 1
DILUPBiCGStab:  Solving for T, Initial residual = 0.00812831, Final residual = 9.00748e-07, No Iterations 23
DICPCG:  Solving for p_rgh, Initial residual = 0.00171906, Final residual = 9.42901e-06, No Iterations 25
time step continuity errors : sum local = 1.67807e-07, global = -2.11836e-20, cumulative = -4.15896e-19
DICPCG:  Solving for p_rgh, Initial residual = 1.37678e-05, Final residual = 8.56383e-09, No Iterations 135
time step continuity errors : sum local = 1.52384e-10, global = -2.11773e-20, cumulative = -4.37073e-19
ExecutionTime = 177.06 s  ClockTime = 178 s

Courant Number mean: 4.45057e-05 max: 9.67988e-05
deltaT = 100
Time = 5200

PIMPLE: iteration 1
DILUPBiCGStab:  Solving for T, Initial residual = 0.00763766, Final residual = 9.65302e-07, No Iterations 24
DICPCG:  Solving for p_rgh, Initial residual = 0.00161046, Final residual = 8.8375e-06, No Iterations 25
time step continuity errors : sum local = 1.57746e-07, global = 4.23605e-20, cumulative = -3.94713e-19
DICPCG:  Solving for p_rgh, Initial residual = 1.2902e-05, Final residual = 8.02888e-09, No Iterations 135
time step continuity errors : sum local = 1.43275e-10, global = 4.23459e-20, cumulative = -3.52367e-19
ExecutionTime = 178.68 s  ClockTime = 179 s

Courant Number mean: 4.53723e-05 max: 9.87089e-05
deltaT = 100
Time = 5300

PIMPLE: iteration 1
DILUPBiCGStab:  Solving for T, Initial residual = 0.00717662, Final residual = 9.71568e-07, No Iterations 23
DICPCG:  Solving for p_rgh, Initial residual = 0.00150902, Final residual = 8.28566e-06, No Iterations 25
time step continuity errors : sum local = 1.48306e-07, global = -1.27056e-19, cumulative = -4.79423e-19
DICPCG:  Solving for p_rgh, Initial residual = 1.20951e-05, Final residual = 7.51517e-09, No Iterations 135
time step continuity errors : sum local = 1.34467e-10, global = -1.27064e-19, cumulative = -6.06487e-19
ExecutionTime = 180.3 s  ClockTime = 181 s

Courant Number mean: 4.62327e-05 max: 0.00010063
deltaT = 100
Time = 5400

PIMPLE: iteration 1
DILUPBiCGStab:  Solving for T, Initial residual = 0.00674341, Final residual = 9.93586e-07, No Iterations 22
DICPCG:  Solving for p_rgh, Initial residual = 0.0014144, Final residual = 7.77557e-06, No Iterations 25
time step continuity errors : sum local = 1.39538e-07, global = -3.59998e-19, cumulative = -9.66485e-19
DICPCG:  Solving for p_rgh, Initial residual = 1.1348e-05, Final residual = 9.68809e-09, No Iterations 134
time step continuity errors : sum local = 1.73768e-10, global = -3.59975e-19, cumulative = -1.32646e-18
ExecutionTime = 181.91 s  ClockTime = 182 s

Courant Number mean: 4.71023e-05 max: 0.000102553
deltaT = 100
Time = 5500

PIMPLE: iteration 1
DILUPBiCGStab:  Solving for T, Initial residual = 0.00633636, Final residual = 9.52817e-07, No Iterations 22
DICPCG:  Solving for p_rgh, Initial residual = 0.00132574, Final residual = 7.27032e-06, No Iterations 25
time step continuity errors : sum local = 1.3079e-07, global = -2.11898e-20, cumulative = -1.34765e-18
DICPCG:  Solving for p_rgh, Initial residual = 1.06211e-05, Final residual = 9.08131e-09, No Iterations 134
time step continuity errors : sum local = 1.6327e-10, global = -2.11695e-20, cumulative = -1.36882e-18
ExecutionTime = 184.53 s  ClockTime = 185 s

Courant Number mean: 4.79753e-05 max: 0.000104468
deltaT = 100
Time = 5600

PIMPLE: iteration 1
DILUPBiCGStab:  Solving for T, Initial residual = 0.00595388, Final residual = 9.61567e-07, No Iterations 23
DICPCG:  Solving for p_rgh, Initial residual = 0.00124283, Final residual = 6.81998e-06, No Iterations 25
time step continuity errors : sum local = 1.22967e-07, global = -1.90595e-19, cumulative = -1.55941e-18
DICPCG:  Solving for p_rgh, Initial residual = 9.9598e-06, Final residual = 8.5107e-09, No Iterations 134
time step continuity errors : sum local = 1.53349e-10, global = -1.9059e-19, cumulative = -1.75e-18
ExecutionTime = 186.14 s  ClockTime = 187 s

Courant Number mean: 4.88495e-05 max: 0.000106409
deltaT = 100
Time = 5700

PIMPLE: iteration 1
DILUPBiCGStab:  Solving for T, Initial residual = 0.00559448, Final residual = 8.31703e-07, No Iterations 22
DICPCG:  Solving for p_rgh, Initial residual = 0.00116536, Final residual = 6.4057e-06, No Iterations 25
time step continuity errors : sum local = 1.15746e-07, global = -2.54095e-19, cumulative = -2.0041e-18
DICPCG:  Solving for p_rgh, Initial residual = 9.35119e-06, Final residual = 9.55586e-09, No Iterations 133
time step continuity errors : sum local = 1.72537e-10, global = -2.54105e-19, cumulative = -2.2582e-18
ExecutionTime = 187.77 s  ClockTime = 188 s

Courant Number mean: 4.97122e-05 max: 0.000108276
deltaT = 100
Time = 5800

PIMPLE: iteration 1
DILUPBiCGStab:  Solving for T, Initial residual = 0.00525678, Final residual = 9.60805e-07, No Iterations 21
DICPCG:  Solving for p_rgh, Initial residual = 0.00109286, Final residual = 5.9914e-06, No Iterations 25
time step continuity errors : sum local = 1.08477e-07, global = -8.47118e-20, cumulative = -2.34292e-18
DICPCG:  Solving for p_rgh, Initial residual = 8.75579e-06, Final residual = 8.95242e-09, No Iterations 133
time step continuity errors : sum local = 1.61952e-10, global = -8.47006e-20, cumulative = -2.42762e-18
ExecutionTime = 189.37 s  ClockTime = 190 s

Courant Number mean: 5.05775e-05 max: 0.000110131
deltaT = 100
Time = 5900

PIMPLE: iteration 1
DILUPBiCGStab:  Solving for T, Initial residual = 0.00493946, Final residual = 9.48216e-07, No Iterations 21
DICPCG:  Solving for p_rgh, Initial residual = 0.00102488, Final residual = 5.6177e-06, No Iterations 25
time step continuity errors : sum local = 1.01903e-07, global = 6.35426e-20, cumulative = -2.36407e-18
DICPCG:  Solving for p_rgh, Initial residual = 8.2099e-06, Final residual = 8.40177e-09, No Iterations 133
time step continuity errors : sum local = 1.52269e-10, global = 6.35248e-20, cumulative = -2.30055e-18
ExecutionTime = 190.98 s  ClockTime = 192 s

Courant Number mean: 5.14407e-05 max: 0.000112003
deltaT = 100
Time = 6000

PIMPLE: iteration 1
DILUPBiCGStab:  Solving for T, Initial residual = 0.0046413, Final residual = 9.54047e-07, No Iterations 22
DICPCG:  Solving for p_rgh, Initial residual = 0.000961333, Final residual = 5.28344e-06, No Iterations 25
time step continuity errors : sum local = 9.60073e-08, global = -2.75289e-19, cumulative = -2.57584e-18
DICPCG:  Solving for p_rgh, Initial residual = 7.71401e-06, Final residual = 9.69309e-09, No Iterations 132
time step continuity errors : sum local = 1.76005e-10, global = -2.7528e-19, cumulative = -2.85112e-18
ExecutionTime = 193.56 s  ClockTime = 194 s

Courant Number mean: 5.23006e-05 max: 0.000113875
deltaT = 100
Time = 6100

PIMPLE: iteration 1
DILUPBiCGStab:  Solving for T, Initial residual = 0.00436113, Final residual = 9.79424e-07, No Iterations 21
DICPCG:  Solving for p_rgh, Initial residual = 0.000901873, Final residual = 4.94477e-06, No Iterations 25
time step continuity errors : sum local = 9.00043e-08, global = -1.05884e-19, cumulative = -2.957e-18
DICPCG:  Solving for p_rgh, Initial residual = 7.22824e-06, Final residual = 9.07619e-09, No Iterations 132
time step continuity errors : sum local = 1.65069e-10, global = -1.05885e-19, cumulative = -3.06289e-18
ExecutionTime = 195.17 s  ClockTime = 196 s

Courant Number mean: 5.31567e-05 max: 0.00011573
deltaT = 100
Time = 6200

PIMPLE: iteration 1
DILUPBiCGStab:  Solving for T, Initial residual = 0.00409789, Final residual = 7.93692e-07, No Iterations 21
DICPCG:  Solving for p_rgh, Initial residual = 0.000846061, Final residual = 4.65194e-06, No Iterations 25
time step continuity errors : sum local = 8.48035e-08, global = 8.47121e-20, cumulative = -2.97818e-18
DICPCG:  Solving for p_rgh, Initial residual = 6.79227e-06, Final residual = 8.51106e-09, No Iterations 132
time step continuity errors : sum local = 1.55025e-10, global = 8.47055e-20, cumulative = -2.89347e-18
ExecutionTime = 196.74 s  ClockTime = 197 s

Courant Number mean: 5.39981e-05 max: 0.000117521
deltaT = 100
Time = 6300

PIMPLE: iteration 1
DILUPBiCGStab:  Solving for T, Initial residual = 0.00385052, Final residual = 8.28653e-07, No Iterations 21
DICPCG:  Solving for p_rgh, Initial residual = 0.000793851, Final residual = 4.35105e-06, No Iterations 25
time step continuity errors : sum local = 7.9435e-08, global = 8.46962e-20, cumulative = -2.80877e-18
DICPCG:  Solving for p_rgh, Initial residual = 6.36015e-06, Final residual = 7.97031e-09, No Iterations 132
time step continuity errors : sum local = 1.45379e-10, global = 8.47003e-20, cumulative = -2.72407e-18
ExecutionTime = 198.33 s  ClockTime = 199 s

Courant Number mean: 5.48254e-05 max: 0.000119264
deltaT = 100
Time = 6400

PIMPLE: iteration 1
DILUPBiCGStab:  Solving for T, Initial residual = 0.00361809, Final residual = 9.4788e-07, No Iterations 21
DICPCG:  Solving for p_rgh, Initial residual = 0.00074491, Final residual = 4.09823e-06, No Iterations 25
time step continuity errors : sum local = 7.49215e-08, global = 4.2345e-20, cumulative = -2.68173e-18
DICPCG:  Solving for p_rgh, Initial residual = 5.98292e-06, Final residual = 9.45785e-09, No Iterations 131
time step continuity errors : sum local = 1.72771e-10, global = 4.23442e-20, cumulative = -2.63938e-18
ExecutionTime = 199.87 s  ClockTime = 200 s

Courant Number mean: 5.56423e-05 max: 0.000120984
deltaT = 100
Time = 6500

PIMPLE: iteration 1
DILUPBiCGStab:  Solving for T, Initial residual = 0.00339969, Final residual = 7.60818e-07, No Iterations 20
DICPCG:  Solving for p_rgh, Initial residual = 0.000699061, Final residual = 3.83591e-06, No Iterations 25
time step continuity errors : sum local = 7.02165e-08, global = -1.69406e-19, cumulative = -2.80879e-18
DICPCG:  Solving for p_rgh, Initial residual = 5.60737e-06, Final residual = 8.83202e-09, No Iterations 131
time step continuity errors : sum local = 1.6154e-10, global = -1.69405e-19, cumulative = -2.97819e-18
ExecutionTime = 202.39 s  ClockTime = 203 s

Courant Number mean: 5.64423e-05 max: 0.000122621
deltaT = 100
Time = 6600

PIMPLE: iteration 1
DILUPBiCGStab:  Solving for T, Initial residual = 0.00319448, Final residual = 8.19393e-07, No Iterations 21
DICPCG:  Solving for p_rgh, Initial residual = 0.000656053, Final residual = 3.60085e-06, No Iterations 25
time step continuity errors : sum local = 6.59919e-08, global = 1.48232e-19, cumulative = -2.82996e-18
DICPCG:  Solving for p_rgh, Initial residual = 5.26097e-06, Final residual = 8.31473e-09, No Iterations 131
time step continuity errors : sum local = 1.52254e-10, global = 1.4823e-19, cumulative = -2.68173e-18
ExecutionTime = 203.95 s  ClockTime = 205 s

Courant Number mean: 5.72283e-05 max: 0.000124235
deltaT = 100
Time = 6700

PIMPLE: iteration 1
DILUPBiCGStab:  Solving for T, Initial residual = 0.00300165, Final residual = 9.00916e-07, No Iterations 20
DICPCG:  Solving for p_rgh, Initial residual = 0.00061578, Final residual = 3.38623e-06, No Iterations 25
time step continuity errors : sum local = 6.21301e-08, global = 6.35232e-20, cumulative = -2.61821e-18
DICPCG:  Solving for p_rgh, Initial residual = 4.94624e-06, Final residual = 7.81182e-09, No Iterations 131
time step continuity errors : sum local = 1.43203e-10, global = 6.35211e-20, cumulative = -2.55469e-18
ExecutionTime = 205.53 s  ClockTime = 206 s

Courant Number mean: 5.8003e-05 max: 0.000125806
deltaT = 100
Time = 6800

PIMPLE: iteration 1
DILUPBiCGStab:  Solving for T, Initial residual = 0.00282046, Final residual = 8.43468e-07, No Iterations 21
DICPCG:  Solving for p_rgh, Initial residual = 0.000577951, Final residual = 3.1638e-06, No Iterations 25
time step continuity errors : sum local = 5.81096e-08, global = 1.57255e-23, cumulative = -2.55467e-18
DICPCG:  Solving for p_rgh, Initial residual = 4.62768e-06, Final residual = 9.85073e-09, No Iterations 60
time step continuity errors : sum local = 2.2286e-10, global = 3.44054e-24, cumulative = -2.55467e-18
ExecutionTime = 206.65 s  ClockTime = 207 s

Courant Number mean: 5.87625e-05 max: 0.000127369
deltaT = 100
Time = 6900

PIMPLE: iteration 1
DILUPBiCGStab:  Solving for T, Initial residual = 0.00265021, Final residual = 8.18666e-07, No Iterations 20
DICPCG:  Solving for p_rgh, Initial residual = 0.000542574, Final residual = 2.98149e-06, No Iterations 25
time step continuity errors : sum local = 5.47672e-08, global = 1.48233e-19, cumulative = -2.40644e-18
DICPCG:  Solving for p_rgh, Initial residual = 4.35243e-06, Final residual = 9.89137e-09, No Iterations 129
time step continuity errors : sum local = 1.81654e-10, global = 1.4824e-19, cumulative = -2.2582e-18
ExecutionTime = 208.19 s  ClockTime = 209 s

Courant Number mean: 5.95095e-05 max: 0.000128907
deltaT = 100
Time = 7000

PIMPLE: iteration 1
DILUPBiCGStab:  Solving for T, Initial residual = 0.00249023, Final residual = 9.04923e-07, No Iterations 20
DICPCG:  Solving for p_rgh, Initial residual = 0.000509338, Final residual = 2.79493e-06, No Iterations 25
time step continuity errors : sum local = 5.14555e-08, global = -6.35348e-20, cumulative = -2.32173e-18
DICPCG:  Solving for p_rgh, Initial residual = 4.08839e-06, Final residual = 9.84349e-09, No Iterations 54
time step continuity errors : sum local = 1.88782e-10, global = -6.35325e-20, cumulative = -2.38526e-18
ExecutionTime = 210.29 s  ClockTime = 211 s

Courant Number mean: 6.02456e-05 max: 0.000130411
deltaT = 100
Time = 7100

PIMPLE: iteration 1
DILUPBiCGStab:  Solving for T, Initial residual = 0.00233992, Final residual = 9.52154e-07, No Iterations 20
DICPCG:  Solving for p_rgh, Initial residual = 0.000478174, Final residual = 2.62493e-06, No Iterations 25
time step continuity errors : sum local = 4.8329e-08, global = 2.11911e-20, cumulative = -2.36407e-18
DICPCG:  Solving for p_rgh, Initial residual = 3.83451e-06, Final residual = 9.95938e-09, No Iterations 128
time step continuity errors : sum local = 1.83232e-10, global = 2.11819e-20, cumulative = -2.34289e-18
ExecutionTime = 211.84 s  ClockTime = 212 s

Courant Number mean: 6.09718e-05 max: 0.000131896
deltaT = 100
Time = 7200

PIMPLE: iteration 1
DILUPBiCGStab:  Solving for T, Initial residual = 0.00219867, Final residual = 7.66015e-07, No Iterations 20
DICPCG:  Solving for p_rgh, Initial residual = 0.000448888, Final residual = 2.46423e-06, No Iterations 25
time step continuity errors : sum local = 4.54339e-08, global = -1.90581e-19, cumulative = -2.53347e-18
[...]
Time = 37100

PIMPLE: iteration 1
DILUPBiCGStab:  Solving for T, Initial residual = 9.91899e-07, Final residual = 9.91899e-07, No Iterations 0
DICPCG:  Solving for p_rgh, Initial residual = 1.05102e-08, Final residual = 5.30246e-09, No Iterations 1
time step continuity errors : sum local = 9.88226e-11, global = 6.35296e-20, cumulative = -7.74257e-18
DICPCG:  Solving for p_rgh, Initial residual = 1.05897e-08, Final residual = 5.32687e-09, No Iterations 1
time step continuity errors : sum local = 9.92778e-11, global = 6.3534e-20, cumulative = -7.67904e-18
ExecutionTime = 449.98 s  ClockTime = 451 s

Courant Number mean: 0.0001939 max: 0.000377234
deltaT = 100
Time = 37200

PIMPLE: iteration 1
DILUPBiCGStab:  Solving for T, Initial residual = 9.92525e-07, Final residual = 9.92525e-07, No Iterations 0
DICPCG:  Solving for p_rgh, Initial residual = 1.04481e-08, Final residual = 5.47536e-09, No Iterations 1
time step continuity errors : sum local = 1.02046e-10, global = -2.11867e-20, cumulative = -7.70023e-18
DICPCG:  Solving for p_rgh, Initial residual = 1.05843e-08, Final residual = 5.59217e-09, No Iterations 1
time step continuity errors : sum local = 1.04223e-10, global = -2.11518e-20, cumulative = -7.72138e-18
ExecutionTime = 450.38 s  ClockTime = 451 s

Courant Number mean: 0.000194233 max: 0.000377853
deltaT = 100
Time = 37300

PIMPLE: iteration 1
DILUPBiCGStab:  Solving for T, Initial residual = 9.93153e-07, Final residual = 9.93153e-07, No Iterations 0
DICPCG:  Solving for p_rgh, Initial residual = 1.04797e-08, Final residual = 5.79106e-09, No Iterations 1
time step continuity errors : sum local = 1.0793e-10, global = 1.69367e-19, cumulative = -7.55201e-18
DICPCG:  Solving for p_rgh, Initial residual = 1.06154e-08, Final residual = 5.90257e-09, No Iterations 1
time step continuity errors : sum local = 1.10008e-10, global = 1.69412e-19, cumulative = -7.3826e-18
ExecutionTime = 450.81 s  ClockTime = 451 s

Courant Number mean: 0.000194566 max: 0.000378471
deltaT = 100
Time = 37400

PIMPLE: iteration 1
DILUPBiCGStab:  Solving for T, Initial residual = 9.93784e-07, Final residual = 9.93784e-07, No Iterations 0
DICPCG:  Solving for p_rgh, Initial residual = 1.05044e-08, Final residual = 6.06375e-09, No Iterations 1
time step continuity errors : sum local = 1.13013e-10, global = -1.2706e-19, cumulative = -7.50966e-18
DICPCG:  Solving for p_rgh, Initial residual = 1.06176e-08, Final residual = 6.11672e-09, No Iterations 1
time step continuity errors : sum local = 1.14e-10, global = -1.27058e-19, cumulative = -7.63672e-18
ExecutionTime = 451.21 s  ClockTime = 452 s

Courant Number mean: 0.000194897 max: 0.000379086
deltaT = 100
Time = 37500

PIMPLE: iteration 1
DILUPBiCGStab:  Solving for T, Initial residual = 9.94419e-07, Final residual = 9.94419e-07, No Iterations 0
DICPCG:  Solving for p_rgh, Initial residual = 1.04896e-08, Final residual = 6.21036e-09, No Iterations 1
time step continuity errors : sum local = 1.15745e-10, global = -2.11457e-20, cumulative = -7.65786e-18
DICPCG:  Solving for p_rgh, Initial residual = 1.05757e-08, Final residual = 6.18673e-09, No Iterations 1
time step continuity errors : sum local = 1.15305e-10, global = -2.11719e-20, cumulative = -7.67904e-18
ExecutionTime = 452.58 s  ClockTime = 453 s

Courant Number mean: 0.000195227 max: 0.000379701
deltaT = 100
Time = 37600

PIMPLE: iteration 1
DILUPBiCGStab:  Solving for T, Initial residual = 9.95056e-07, Final residual = 9.95056e-07, No Iterations 0
DICPCG:  Solving for p_rgh, Initial residual = 1.04269e-08, Final residual = 6.20737e-09, No Iterations 1
time step continuity errors : sum local = 1.1569e-10, global = 1.90612e-19, cumulative = -7.48842e-18
DICPCG:  Solving for p_rgh, Initial residual = 1.0488e-08, Final residual = 6.11133e-09, No Iterations 1
time step continuity errors : sum local = 1.139e-10, global = 1.90555e-19, cumulative = -7.29787e-18
ExecutionTime = 453.01 s  ClockTime = 454 s

Courant Number mean: 0.000195557 max: 0.000380313
deltaT = 100
Time = 37700

PIMPLE: iteration 1
DILUPBiCGStab:  Solving for T, Initial residual = 9.95697e-07, Final residual = 9.95697e-07, No Iterations 0
DICPCG:  Solving for p_rgh, Initial residual = 1.03195e-08, Final residual = 6.07226e-09, No Iterations 1
time step continuity errors : sum local = 1.13172e-10, global = 2.75282e-19, cumulative = -7.02259e-18
DICPCG:  Solving for p_rgh, Initial residual = 1.03622e-08, Final residual = 5.9319e-09, No Iterations 1
time step continuity errors : sum local = 1.10556e-10, global = 2.75287e-19, cumulative = -6.7473e-18
ExecutionTime = 453.41 s  ClockTime = 454 s

Courant Number mean: 0.000195886 max: 0.000380924
deltaT = 100
Time = 37800

PIMPLE: iteration 1
DILUPBiCGStab:  Solving for T, Initial residual = 9.96343e-07, Final residual = 9.96343e-07, No Iterations 0
DICPCG:  Solving for p_rgh, Initial residual = 1.0177e-08, Final residual = 5.8648e-09, No Iterations 1
time step continuity errors : sum local = 1.09305e-10, global = -1.4822e-19, cumulative = -6.89552e-18
DICPCG:  Solving for p_rgh, Initial residual = 1.02118e-08, Final residual = 5.70966e-09, No Iterations 1
time step continuity errors : sum local = 1.06414e-10, global = -1.4824e-19, cumulative = -7.04376e-18
ExecutionTime = 453.82 s  ClockTime = 454 s

Courant Number mean: 0.000196213 max: 0.000381534
deltaT = 100
Time = 37900

PIMPLE: iteration 1
DILUPBiCGStab:  Solving for T, Initial residual = 9.96994e-07, Final residual = 9.96994e-07, No Iterations 0
DICPCG:  Solving for p_rgh, Initial residual = 1.00238e-08, Final residual = 5.64888e-09, No Iterations 1
time step continuity errors : sum local = 1.05281e-10, global = 1.906e-19, cumulative = -6.85316e-18
DICPCG:  Solving for p_rgh, Initial residual = 1.00834e-08, Final residual = 5.52688e-09, No Iterations 1
time step continuity errors : sum local = 1.03007e-10, global = 1.90589e-19, cumulative = -6.66257e-18
ExecutionTime = 454.23 s  ClockTime = 455 s

Courant Number mean: 0.00019654 max: 0.000382141
deltaT = 100
Time = 38000

PIMPLE: iteration 1
DILUPBiCGStab:  Solving for T, Initial residual = 9.97654e-07, Final residual = 9.97654e-07, No Iterations 0
DICPCG:  Solving for p_rgh, Initial residual = 9.93389e-09, Final residual = 9.93389e-09, No Iterations 0
time step continuity errors : sum local = 1.85137e-10, global = -6.35357e-20, cumulative = -6.72611e-18
DICPCG:  Solving for p_rgh, Initial residual = 2.27268e-08, Final residual = 7.70998e-09, No Iterations 1
time step continuity errors : sum local = 1.43695e-10, global = -6.35123e-20, cumulative = -6.78962e-18
ExecutionTime = 455.61 s  ClockTime = 456 s

Courant Number mean: 0.000196866 max: 0.000382747
deltaT = 100
Time = 38100

PIMPLE: iteration 1
DILUPBiCGStab:  Solving for T, Initial residual = 9.98356e-07, Final residual = 9.98356e-07, No Iterations 0
DICPCG:  Solving for p_rgh, Initial residual = 9.327e-09, Final residual = 9.327e-09, No Iterations 0
time step continuity errors : sum local = 1.73826e-10, global = 1.9052e-19, cumulative = -6.5991e-18
DICPCG:  Solving for p_rgh, Initial residual = 2.13885e-08, Final residual = 9.0206e-09, No Iterations 1
time step continuity errors : sum local = 1.6812e-10, global = 1.90584e-19, cumulative = -6.40851e-18
ExecutionTime = 456 s  ClockTime = 457 s

Courant Number mean: 0.000197192 max: 0.000383352
deltaT = 100
Time = 38200

PIMPLE: iteration 1
DILUPBiCGStab:  Solving for T, Initial residual = 9.99023e-07, Final residual = 9.99023e-07, No Iterations 0
DICPCG:  Solving for p_rgh, Initial residual = 8.20906e-09, Final residual = 8.20906e-09, No Iterations 0
time step continuity errors : sum local = 1.52992e-10, global = 4.23268e-20, cumulative = -6.36619e-18
DICPCG:  Solving for p_rgh, Initial residual = 1.75947e-08, Final residual = 8.85128e-09, No Iterations 1
time step continuity errors : sum local = 1.64964e-10, global = 4.23573e-20, cumulative = -6.32383e-18
ExecutionTime = 456.4 s  ClockTime = 457 s

Courant Number mean: 0.000197516 max: 0.000383954
deltaT = 100
Time = 38300

PIMPLE: iteration 1
DILUPBiCGStab:  Solving for T, Initial residual = 9.99711e-07, Final residual = 9.99711e-07, No Iterations 0
DICPCG:  Solving for p_rgh, Initial residual = 8.09488e-09, Final residual = 8.09488e-09, No Iterations 0
time step continuity errors : sum local = 1.50863e-10, global = 1.90615e-19, cumulative = -6.13322e-18
DICPCG:  Solving for p_rgh, Initial residual = 1.75266e-08, Final residual = 8.71982e-09, No Iterations 1
time step continuity errors : sum local = 1.62514e-10, global = 1.90566e-19, cumulative = -5.94265e-18
ExecutionTime = 456.81 s  ClockTime = 457 s

Courant Number mean: 0.00019784 max: 0.000384556
deltaT = 100
Time = 38400

PIMPLE: iteration 1
DILUPBiCGStab:  Solving for T, Initial residual = 1.0004e-06, Final residual = 8.40387e-07, No Iterations 2
DICPCG:  Solving for p_rgh, Initial residual = 1.57828e-06, Final residual = 1.39151e-08, No Iterations 40
time step continuity errors : sum local = 2.68492e-10, global = 1.69381e-19, cumulative = -5.77327e-18
DICPCG:  Solving for p_rgh, Initial residual = 2.9798e-08, Final residual = 9.73663e-09, No Iterations 7
time step continuity errors : sum local = 1.926e-10, global = 1.6939e-19, cumulative = -5.60388e-18
ExecutionTime = 457.5 s  ClockTime = 458 s

Courant Number mean: 0.000198221 max: 0.000385292
deltaT = 100
Time = 38500

PIMPLE: iteration 1
DILUPBiCGStab:  Solving for T, Initial residual = 1.17599e-06, Final residual = 9.73389e-07, No Iterations 1
DICPCG:  Solving for p_rgh, Initial residual = 7.21004e-07, Final residual = 9.64762e-09, No Iterations 28
time step continuity errors : sum local = 1.88459e-10, global = 1.48205e-19, cumulative = -5.45567e-18
DICPCG:  Solving for p_rgh, Initial residual = 2.58273e-08, Final residual = 7.68319e-09, No Iterations 13
time step continuity errors : sum local = 1.4868e-10, global = 1.48248e-19, cumulative = -5.30742e-18
ExecutionTime = 459.12 s  ClockTime = 460 s

Courant Number mean: 0.000198603 max: 0.000386032
deltaT = 100
Time = 38600

PIMPLE: iteration 1
DILUPBiCGStab:  Solving for T, Initial residual = 9.83134e-07, Final residual = 9.83134e-07, No Iterations 0
DICPCG:  Solving for p_rgh, Initial residual = 2.17033e-08, Final residual = 9.36369e-09, No Iterations 7
time step continuity errors : sum local = 1.76378e-10, global = -1.05882e-19, cumulative = -5.41331e-18
DICPCG:  Solving for p_rgh, Initial residual = 2.55275e-08, Final residual = 9.32808e-09, No Iterations 5
time step continuity errors : sum local = 1.74312e-10, global = -1.05881e-19, cumulative = -5.51919e-18
ExecutionTime = 459.58 s  ClockTime = 460 s

Courant Number mean: 0.000198984 max: 0.000386766
deltaT = 100
Time = 38700

PIMPLE: iteration 1
DILUPBiCGStab:  Solving for T, Initial residual = 9.8363e-07, Final residual = 9.8363e-07, No Iterations 0
DICPCG:  Solving for p_rgh, Initial residual = 2.45258e-08, Final residual = 8.53991e-09, No Iterations 4
time step continuity errors : sum local = 1.60106e-10, global = -2.5411e-19, cumulative = -5.7733e-18
DICPCG:  Solving for p_rgh, Initial residual = 2.36043e-08, Final residual = 9.83603e-09, No Iterations 19
time step continuity errors : sum local = 1.8469e-10, global = -2.54118e-19, cumulative = -6.02742e-18
ExecutionTime = 460.11 s  ClockTime = 461 s

Courant Number mean: 0.000199364 max: 0.000387486
deltaT = 100
Time = 38800

PIMPLE: iteration 1
DILUPBiCGStab:  Solving for T, Initial residual = 9.84991e-07, Final residual = 9.84991e-07, No Iterations 0
DICPCG:  Solving for p_rgh, Initial residual = 2.51507e-08, Final residual = 9.83506e-09, No Iterations 14
time step continuity errors : sum local = 1.83988e-10, global = -2.11648e-20, cumulative = -6.04858e-18
DICPCG:  Solving for p_rgh, Initial residual = 2.52114e-08, Final residual = 9.97626e-09, No Iterations 24
time step continuity errors : sum local = 1.87033e-10, global = -2.11891e-20, cumulative = -6.06977e-18
ExecutionTime = 460.72 s  ClockTime = 461 s

Courant Number mean: 0.000199742 max: 0.000388205
deltaT = 100
Time = 38900

PIMPLE: iteration 1
DILUPBiCGStab:  Solving for T, Initial residual = 9.86132e-07, Final residual = 9.86132e-07, No Iterations 0
DICPCG:  Solving for p_rgh, Initial residual = 2.37911e-08, Final residual = 9.18209e-09, No Iterations 10
time step continuity errors : sum local = 1.71839e-10, global = -7.09549e-24, cumulative = -6.06978e-18
DICPCG:  Solving for p_rgh, Initial residual = 2.5024e-08, Final residual = 8.56933e-09, No Iterations 5
time step continuity errors : sum local = 1.60247e-10, global = -3.12441e-23, cumulative = -6.06981e-18
ExecutionTime = 461.19 s  ClockTime = 462 s

Courant Number mean: 0.00020012 max: 0.000388926
deltaT = 100
Time = 39000

PIMPLE: iteration 1
DILUPBiCGStab:  Solving for T, Initial residual = 9.86649e-07, Final residual = 9.86649e-07, No Iterations 0
DICPCG:  Solving for p_rgh, Initial residual = 2.36133e-08, Final residual = 9.18012e-09, No Iterations 3
time step continuity errors : sum local = 1.71275e-10, global = 4.23687e-20, cumulative = -6.02744e-18
DICPCG:  Solving for p_rgh, Initial residual = 2.56214e-08, Final residual = 8.3458e-09, No Iterations 13
time step continuity errors : sum local = 1.55528e-10, global = 4.23625e-20, cumulative = -5.98508e-18
ExecutionTime = 462.64 s  ClockTime = 463 s

Courant Number mean: 0.000200497 max: 0.00038964
deltaT = 100
Time = 39100

PIMPLE: iteration 1
DILUPBiCGStab:  Solving for T, Initial residual = 9.87115e-07, Final residual = 9.87115e-07, No Iterations 0
DICPCG:  Solving for p_rgh, Initial residual = 2.24151e-08, Final residual = 9.16314e-09, No Iterations 8
time step continuity errors : sum local = 1.71034e-10, global = -2.11953e-20, cumulative = -6.00627e-18
DICPCG:  Solving for p_rgh, Initial residual = 2.30184e-08, Final residual = 9.94102e-09, No Iterations 4
time step continuity errors : sum local = 1.85303e-10, global = -2.11511e-20, cumulative = -6.02742e-18
ExecutionTime = 463.12 s  ClockTime = 464 s

Courant Number mean: 0.000200872 max: 0.000390351
deltaT = 100
Time = 39200

PIMPLE: iteration 1
DILUPBiCGStab:  Solving for T, Initial residual = 9.87602e-07, Final residual = 9.87602e-07, No Iterations 0
DICPCG:  Solving for p_rgh, Initial residual = 2.59873e-08, Final residual = 9.64678e-09, No Iterations 3
time step continuity errors : sum local = 1.79771e-10, global = -7.09154e-24, cumulative = -6.02743e-18
DICPCG:  Solving for p_rgh, Initial residual = 2.79951e-08, Final residual = 8.60793e-09, No Iterations 11
time step continuity errors : sum local = 1.60996e-10, global = 2.58437e-23, cumulative = -6.0274e-18
ExecutionTime = 463.59 s  ClockTime = 464 s

Courant Number mean: 0.000201247 max: 0.000391058
deltaT = 100
Time = 39300

PIMPLE: iteration 1
DILUPBiCGStab:  Solving for T, Initial residual = 9.88502e-07, Final residual = 9.88502e-07, No Iterations 0
DICPCG:  Solving for p_rgh, Initial residual = 2.27559e-08, Final residual = 7.13636e-09, No Iterations 7
time step continuity errors : sum local = 1.33391e-10, global = -6.35367e-20, cumulative = -6.09094e-18
DICPCG:  Solving for p_rgh, Initial residual = 2.13713e-08, Final residual = 7.35246e-09, No Iterations 3
time step continuity errors : sum local = 1.37107e-10, global = -6.35193e-20, cumulative = -6.15446e-18
ExecutionTime = 464.03 s  ClockTime = 465 s

Courant Number mean: 0.000201621 max: 0.000391765
deltaT = 100
Time = 39400

PIMPLE: iteration 1
DILUPBiCGStab:  Solving for T, Initial residual = 9.89703e-07, Final residual = 9.89703e-07, No Iterations 0
DICPCG:  Solving for p_rgh, Initial residual = 2.30176e-08, Final residual = 8.9192e-09, No Iterations 2
time step continuity errors : sum local = 1.66265e-10, global = -8.47433e-20, cumulative = -6.2392e-18
DICPCG:  Solving for p_rgh, Initial residual = 2.28802e-08, Final residual = 9.77707e-09, No Iterations 2
time step continuity errors : sum local = 1.82326e-10, global = -8.47407e-20, cumulative = -6.32394e-18
ExecutionTime = 464.46 s  ClockTime = 465 s

Courant Number mean: 0.000201993 max: 0.000392468
deltaT = 100
Time = 39500

PIMPLE: iteration 1
DILUPBiCGStab:  Solving for T, Initial residual = 9.90611e-07, Final residual = 9.90611e-07, No Iterations 0
DICPCG:  Solving for p_rgh, Initial residual = 2.33712e-08, Final residual = 8.0035e-09, No Iterations 6
time step continuity errors : sum local = 1.49458e-10, global = 4.23422e-20, cumulative = -6.2816e-18
DICPCG:  Solving for p_rgh, Initial residual = 2.24141e-08, Final residual = 9.58411e-09, No Iterations 8
time step continuity errors : sum local = 1.78694e-10, global = 4.23663e-20, cumulative = -6.23924e-18
ExecutionTime = 465.91 s  ClockTime = 467 s

Courant Number mean: 0.000202365 max: 0.000393169
deltaT = 100
Time = 39600

PIMPLE: iteration 1
DILUPBiCGStab:  Solving for T, Initial residual = 9.91784e-07, Final residual = 9.91784e-07, No Iterations 0
DICPCG:  Solving for p_rgh, Initial residual = 2.37585e-08, Final residual = 8.06776e-09, No Iterations 4
time step continuity errors : sum local = 1.50367e-10, global = -2.75323e-19, cumulative = -6.51456e-18
DICPCG:  Solving for p_rgh, Initial residual = 2.25019e-08, Final residual = 9.64253e-09, No Iterations 2
time step continuity errors : sum local = 1.79889e-10, global = -2.75297e-19, cumulative = -6.78986e-18
ExecutionTime = 466.34 s  ClockTime = 467 s

Courant Number mean: 0.000202736 max: 0.000393869
deltaT = 100
Time = 39700

PIMPLE: iteration 1
DILUPBiCGStab:  Solving for T, Initial residual = 9.92131e-07, Final residual = 9.92131e-07, No Iterations 0
DICPCG:  Solving for p_rgh, Initial residual = 2.17159e-08, Final residual = 8.10613e-09, No Iterations 1
time step continuity errors : sum local = 1.51135e-10, global = -1.27058e-19, cumulative = -6.91691e-18
DICPCG:  Solving for p_rgh, Initial residual = 1.57711e-08, Final residual = 8.81721e-09, No Iterations 1
time step continuity errors : sum local = 1.64321e-10, global = -1.27052e-19, cumulative = -7.04397e-18
ExecutionTime = 466.77 s  ClockTime = 467 s

Courant Number mean: 0.000203106 max: 0.000394565
deltaT = 100
Time = 39800

PIMPLE: iteration 1
DILUPBiCGStab:  Solving for T, Initial residual = 9.93173e-07, Final residual = 9.93173e-07, No Iterations 0
DICPCG:  Solving for p_rgh, Initial residual = 1.40915e-08, Final residual = 9.84777e-09, No Iterations 6
time step continuity errors : sum local = 1.83806e-10, global = -2.11988e-20, cumulative = -7.06517e-18
DICPCG:  Solving for p_rgh, Initial residual = 2.56501e-08, Final residual = 8.76756e-09, No Iterations 3
time step continuity errors : sum local = 1.63615e-10, global = -2.11802e-20, cumulative = -7.08635e-18
ExecutionTime = 467.21 s  ClockTime = 468 s

Courant Number mean: 0.000203475 max: 0.000395261
deltaT = 100
Time = 39900

PIMPLE: iteration 1
DILUPBiCGStab:  Solving for T, Initial residual = 9.94148e-07, Final residual = 9.94148e-07, No Iterations 0
DICPCG:  Solving for p_rgh, Initial residual = 2.54515e-08, Final residual = 9.85656e-09, No Iterations 5
time step continuity errors : sum local = 1.83638e-10, global = -2.11582e-20, cumulative = -7.1075e-18
DICPCG:  Solving for p_rgh, Initial residual = 2.42746e-08, Final residual = 9.23739e-09, No Iterations 2
time step continuity errors : sum local = 1.72348e-10, global = -2.11781e-20, cumulative = -7.12868e-18
ExecutionTime = 467.64 s  ClockTime = 468 s

Courant Number mean: 0.000203842 max: 0.000395955
deltaT = 100
Time = 40000

PIMPLE: iteration 1
DILUPBiCGStab:  Solving for T, Initial residual = 9.94372e-07, Final residual = 9.94372e-07, No Iterations 0
DICPCG:  Solving for p_rgh, Initial residual = 2.08421e-08, Final residual = 8.87187e-09, No Iterations 1
time step continuity errors : sum local = 1.65373e-10, global = 1.0593e-19, cumulative = -7.02275e-18
DICPCG:  Solving for p_rgh, Initial residual = 1.71863e-08, Final residual = 9.56709e-09, No Iterations 1
time step continuity errors : sum local = 1.78318e-10, global = 1.05875e-19, cumulative = -6.91688e-18
ExecutionTime = 469.06 s  ClockTime = 470 s

End

